new load.3000315654M1 bus1=RML1051790509.1.0,Phases=1,kv=0.12,kW=0.47032,pf=0.92,Vminpu=0.92,Vmaxpu=1.5,model=1,daily=RES2_5,status=variable
new load.3000315655M1 bus1=RML1060168203.1.2.0,Phases=2,kv=0.24,kW=0.72788,pf=0.92,Vminpu=0.92,Vmaxpu=1.5,model=1,daily=RES2_5,status=variable
new load.3000315656M1 bus1=RML1051790957.1.2.0,Phases=2,kv=0.24,kW=0.47592,pf=0.92,Vminpu=0.92,Vmaxpu=1.5,model=1,daily=RES2_5,status=variable
new load.3000315657M1 bus1=RML1051790936.2.0,Phases=1,kv=0.12,kW=0.94064,pf=0.92,Vminpu=0.92,Vmaxpu=1.5,model=1,daily=RES2_5,status=variable
new load.3000315658M1 bus1=RML1051790929.1.2.0,Phases=2,kv=0.24,kW=0.12878,pf=0.92,Vminpu=0.92,Vmaxpu=1.5,model=1,daily=RES2_5,status=variable
new load.3000315659M1 bus1=RML1051790922.2.0,Phases=1,kv=0.12,kW=1.0002,pf=0.92,Vminpu=0.92,Vmaxpu=1.5,model=1,daily=RES1_3,status=variable
new load.3000315660M1 bus1=RML1051790852.1.2.0,Phases=2,kv=0.24,kW=0.43672,pf=0.92,Vminpu=0.92,Vmaxpu=1.5,model=1,daily=RES2_5,status=variable
new load.3000315661M1 bus1=RML1051790873.2.0,Phases=1,kv=0.12,kW=0.43114,pf=0.92,Vminpu=0.92,Vmaxpu=1.5,model=1,daily=RES2_5,status=variable
new load.3000315662M1 bus1=RML1051790845.1.0,Phases=1,kv=0.12,kW=0.5599,pf=0.92,Vminpu=0.92,Vmaxpu=1.5,model=1,daily=RES2_5,status=variable
new load.3000315663M1 bus1=RML1051790901.1.2.0,Phases=2,kv=0.24,kW=0.97722,pf=0.92,Vminpu=0.92,Vmaxpu=1.5,model=1,daily=RES1_3,status=variable
new load.3000315665M1 bus1=RML1051790908.1.2.0,Phases=2,kv=0.24,kW=0.84546,pf=0.92,Vminpu=0.92,Vmaxpu=1.5,model=1,daily=RES2_5,status=variable
new load.3000315666M1 bus1=RML1051790943.1.0,Phases=1,kv=0.12,kW=0.69988,pf=0.92,Vminpu=0.92,Vmaxpu=1.5,model=1,daily=RES2_5,status=variable
new load.3000315667M1 bus1=RML1051790950.2.0,Phases=1,kv=0.12,kW=0.88466,pf=0.92,Vminpu=0.92,Vmaxpu=1.5,model=1,daily=RES2_5,status=variable
new load.3000315668M1 bus1=RML1051790978.2.0,Phases=1,kv=0.12,kW=0.50392,pf=0.92,Vminpu=0.92,Vmaxpu=1.5,model=1,daily=RES2_5,status=variable
new load.3000315670M1 bus1=RML1052414832.2.0,Phases=1,kv=0.127,kW=0.50952,pf=0.92,Vminpu=0.92,Vmaxpu=1.5,model=1,daily=RES2_5,status=variable
new load.3000315672M1 bus1=RML1052414909.1.0,Phases=1,kv=0.127,kW=0.6327,pf=0.92,Vminpu=0.92,Vmaxpu=1.5,model=1,daily=RES2_5,status=variable
new load.3000315673M1 bus1=RML1052414895.1.2.0,Phases=2,kv=0.22,kW=0.55432,pf=0.92,Vminpu=0.92,Vmaxpu=1.5,model=1,daily=RES2_5,status=variable
new load.3000315675M1 bus1=RML1052414867.3.0,Phases=1,kv=0.127,kW=0.4443,pf=0.92,Vminpu=0.92,Vmaxpu=1.5,model=1,daily=RES3_5,status=variable
new load.3000315676M1 bus1=RML1052414916.1.2.0,Phases=2,kv=0.22,kW=2.09026,pf=0.92,Vminpu=0.92,Vmaxpu=1.5,model=1,daily=RES3_5,status=variable
new load.3000315677M1 bus1=RML1052414930.1.2.0,Phases=2,kv=0.22,kW=0.76148,pf=0.92,Vminpu=0.92,Vmaxpu=1.5,model=1,daily=RES2_5,status=variable
new load.3000315678M1 bus1=RML1052414951.1.2.0,Phases=2,kv=0.22,kW=0.17506,pf=0.92,Vminpu=0.92,Vmaxpu=1.5,model=1,daily=COM1_9,status=variable
new load.3000315679M1 bus1=RML1052414993.1.3.0,Phases=2,kv=0.22,kW=0.55432,pf=0.92,Vminpu=0.92,Vmaxpu=1.5,model=1,daily=RES2_5,status=variable
new load.3000315680M1 bus1=RML1053723433.1.2.0,Phases=2,kv=0.22,kW=1.2233,pf=0.92,Vminpu=0.92,Vmaxpu=1.5,model=1,daily=COM2_7,status=variable
new load.3000315682M1 bus1=RML1052414965.3.0,Phases=1,kv=0.127,kW=0.28682,pf=0.92,Vminpu=0.92,Vmaxpu=1.5,model=1,daily=COM1_9,status=variable
new load.3000315683M1 bus1=RML1052414412.1.2.0,Phases=2,kv=0.22,kW=1.01076,pf=0.92,Vminpu=0.92,Vmaxpu=1.5,model=1,daily=COM2_7,status=variable
new load.3000315684M1 bus1=RML1052414426.1.2.0,Phases=2,kv=0.22,kW=0.73006,pf=0.92,Vminpu=0.92,Vmaxpu=1.5,model=1,daily=COM1_9,status=variable
new load.3000315686M1 bus1=RML1051791132.1.2.0,Phases=2,kv=0.24,kW=0.5823,pf=0.92,Vminpu=0.92,Vmaxpu=1.5,model=1,daily=RES2_5,status=variable
new load.3000315687M1 bus1=RML1051791146.1.2.0,Phases=2,kv=0.24,kW=0.49436,pf=0.92,Vminpu=0.92,Vmaxpu=1.5,model=1,daily=RES1_3,status=variable
new load.3000315689M1 bus1=RML1051791181.1.2.0,Phases=2,kv=0.24,kW=0.5711,pf=0.92,Vminpu=0.92,Vmaxpu=1.5,model=1,daily=RES2_5,status=variable
new load.3000315690M1 bus1=RML1060297161.1.0,Phases=1,kv=0.12,kW=0.50392,pf=0.92,Vminpu=0.92,Vmaxpu=1.5,model=1,daily=RES2_5,status=variable
new load.3000315692M1 bus1=RML1051791195.1.2.0,Phases=2,kv=0.24,kW=1.17136,pf=0.92,Vminpu=0.92,Vmaxpu=1.5,model=1,daily=RES3_5,status=variable
new load.3000315693M1 bus1=RML1051791223.1.0,Phases=1,kv=0.12,kW=0.65184,pf=0.92,Vminpu=0.92,Vmaxpu=1.5,model=1,daily=COM1_9,status=variable
new load.3000315694M1 bus1=RML1051791230.1.0,Phases=1,kv=0.12,kW=0.78388,pf=0.92,Vminpu=0.92,Vmaxpu=1.5,model=1,daily=RES2_5,status=variable
new load.3000315695M1 bus1=RML1051791174.1.0,Phases=1,kv=0.12,kW=0.6383,pf=0.92,Vminpu=0.92,Vmaxpu=1.5,model=1,daily=RES2_5,status=variable
new load.3000315696M1 bus1=RML1051791167.1.0,Phases=1,kv=0.12,kW=0.74728,pf=0.92,Vminpu=0.92,Vmaxpu=1.5,model=1,daily=RES1_3,status=variable
new load.3000315697M1 bus1=RML1051791153.1.2.0,Phases=2,kv=0.24,kW=0.6898,pf=0.92,Vminpu=0.92,Vmaxpu=1.5,model=1,daily=RES1_3,status=variable
new load.3000315698M1 bus1=RML1051791139.1.2.0,Phases=2,kv=0.24,kW=0.43114,pf=0.92,Vminpu=0.92,Vmaxpu=1.5,model=1,daily=RES2_5,status=variable
new load.3000315699M1 bus1=RML1051791125.1.2.0,Phases=2,kv=0.24,kW=0.25328,pf=0.92,Vminpu=0.92,Vmaxpu=1.5,model=1,daily=COM1_9,status=variable
new load.3000315700M1 bus1=RML1051791125.1.2.0,Phases=2,kv=0.24,kW=0.1192,pf=0.92,Vminpu=0.92,Vmaxpu=1.5,model=1,daily=COM1_9,status=variable
new load.3000315701M1 bus1=RML1052414433.1.2.0,Phases=2,kv=0.22,kW=0.44698,pf=0.92,Vminpu=0.92,Vmaxpu=1.5,model=1,daily=COM1_9,status=variable
new load.3000315702M1 bus1=RML1052414391.2.0,Phases=1,kv=0.127,kW=0.88524,pf=0.92,Vminpu=0.92,Vmaxpu=1.5,model=1,daily=RES1_3,status=variable
new load.3000315703M1 bus1=RML1052414384.1.0,Phases=1,kv=0.127,kW=0.37938,pf=0.92,Vminpu=0.92,Vmaxpu=1.5,model=1,daily=RES1_3,status=variable
new load.3000315704M1 bus1=RML1060391282.2.0,Phases=1,kv=0.127,kW=0.3104,pf=0.92,Vminpu=0.92,Vmaxpu=1.5,model=1,daily=RES1_3,status=variable
new load.3000315705M1 bus1=RML1060351251.1.2.0,Phases=2,kv=0.22,kW=0.6783,pf=0.92,Vminpu=0.92,Vmaxpu=1.5,model=1,daily=RES1_3,status=variable
new load.3000315706M1 bus1=RML1052414349.1.0,Phases=1,kv=0.127,kW=1.00784,pf=0.92,Vminpu=0.92,Vmaxpu=1.5,model=1,daily=RES2_5,status=variable
new load.3000315707M1 bus1=RML1051790558.1.2.0,Phases=2,kv=0.24,kW=0.72228,pf=0.92,Vminpu=0.92,Vmaxpu=1.5,model=1,daily=RES2_5,status=variable
new load.3000315708M1 bus1=RML1051790593.1.2.0,Phases=2,kv=0.24,kW=0.59782,pf=0.92,Vminpu=0.92,Vmaxpu=1.5,model=1,daily=RES1_3,status=variable
new load.3000315709M1 bus1=RML1051790572.1.0,Phases=1,kv=0.12,kW=0.36954,pf=0.92,Vminpu=0.92,Vmaxpu=1.5,model=1,daily=RES2_5,status=variable
new load.3000315710M1 bus1=RML1051790579.1.0,Phases=1,kv=0.12,kW=0.5767,pf=0.92,Vminpu=0.92,Vmaxpu=1.5,model=1,daily=RES2_5,status=variable
new load.3000315711M1 bus1=RML1051790600.1.2.0,Phases=2,kv=0.24,kW=1.20164,pf=0.92,Vminpu=0.92,Vmaxpu=1.5,model=1,daily=RES3_5,status=variable
new load.3000315712M1 bus1=RML1051790565.1.2.0,Phases=2,kv=0.24,kW=0.9025,pf=0.92,Vminpu=0.92,Vmaxpu=1.5,model=1,daily=RUR2_7,status=variable
new load.3000315713M1 bus1=RML1051790530.1.0,Phases=1,kv=0.12,kW=0.68308,pf=0.92,Vminpu=0.92,Vmaxpu=1.5,model=1,daily=RES2_5,status=variable
new load.3000315714M1 bus1=RML1051790537.1.2.0,Phases=2,kv=0.24,kW=0.91266,pf=0.92,Vminpu=0.92,Vmaxpu=1.5,model=1,daily=RES2_5,status=variable
new load.3000315715M1 bus1=RML1051790523.1.2.3.0,Phases=3,kv=0.22,kW=0.50952,pf=0.92,Vminpu=0.92,Vmaxpu=1.5,model=1,daily=RES2_5,status=variable
new load.3000315716M1 bus1=RML1052414335.1.2.0,Phases=2,kv=0.22,kW=0.20114,pf=0.92,Vminpu=0.92,Vmaxpu=1.5,model=1,daily=COM1_9,status=variable
new load.3000315717M1 bus1=RML1052414748.2.0,Phases=1,kv=0.127,kW=0.46472,pf=0.92,Vminpu=0.92,Vmaxpu=1.5,model=1,daily=RES2_5,status=variable
new load.3000315718M1 bus1=RML1052414762.1.0,Phases=1,kv=0.127,kW=0.81626,pf=0.92,Vminpu=0.92,Vmaxpu=1.5,model=1,daily=RES1_3,status=variable
new load.3000315719M1 bus1=RML1052414328.2.0,Phases=1,kv=0.127,kW=0.73908,pf=0.92,Vminpu=0.92,Vmaxpu=1.5,model=1,daily=RES2_5,status=variable
new load.3000315720M1 bus1=RML1052414321.1.0,Phases=1,kv=0.127,kW=0.80476,pf=0.92,Vminpu=0.92,Vmaxpu=1.5,model=1,daily=RES1_3,status=variable
new load.3000315722M1 bus1=RML1052414461.2.0,Phases=1,kv=0.127,kW=0.89674,pf=0.92,Vminpu=0.92,Vmaxpu=1.5,model=1,daily=RES1_3,status=variable
new load.3000315726M1 bus1=RML1052414356.2.0,Phases=1,kv=0.127,kW=0.3564,pf=0.92,Vminpu=0.92,Vmaxpu=1.5,model=1,daily=RES1_3,status=variable
new load.3000315727M1 bus1=RML1052414363.1.0,Phases=1,kv=0.127,kW=0.94064,pf=0.92,Vminpu=0.92,Vmaxpu=1.5,model=1,daily=RES2_5,status=variable
new load.3000315728M1 bus1=RML1052414370.1.2.0,Phases=2,kv=0.22,kW=0.45912,pf=0.92,Vminpu=0.92,Vmaxpu=1.5,model=1,daily=RES2_5,status=variable
new load.3000315729M1 bus1=RML1052414419.1.2.0,Phases=2,kv=0.22,kW=1.58906,pf=0.92,Vminpu=0.92,Vmaxpu=1.5,model=1,daily=COM2_7,status=variable
new load.3000315730M1 bus1=RML1052414958.2.3.0,Phases=2,kv=0.22,kW=0.51734,pf=0.92,Vminpu=0.92,Vmaxpu=1.5,model=1,daily=RES1_3,status=variable
new load.3000315731M1 bus1=RML1052414958.2.3.0,Phases=2,kv=0.22,kW=0.43114,pf=0.92,Vminpu=0.92,Vmaxpu=1.5,model=1,daily=RES2_5,status=variable
new load.3000315734M1 bus1=RML1051790796.1.2.0,Phases=2,kv=0.22,kW=0.149,pf=0.92,Vminpu=0.92,Vmaxpu=1.5,model=1,daily=COM1_9,status=variable
new load.3000315736M1 bus1=RML1051790775.1.2.3.0,Phases=3,kv=0.22,kW=7.36922,pf=0.92,Vminpu=0.92,Vmaxpu=1.5,model=1,daily=RES6_8,status=variable
new load.3000315737M1 bus1=RML1051790782.2.0,Phases=1,kv=0.127,kW=0.72228,pf=0.92,Vminpu=0.92,Vmaxpu=1.5,model=1,daily=RES2_5,status=variable
new load.3000315739M1 bus1=RML1051790768.3.0,Phases=1,kv=0.127,kW=0.68868,pf=0.92,Vminpu=0.92,Vmaxpu=1.5,model=1,daily=RES2_5,status=variable
new load.3000315741M1 bus1=RML1051790747.1.0,Phases=1,kv=0.127,kW=0.5935,pf=0.92,Vminpu=0.92,Vmaxpu=1.5,model=1,daily=RES2_5,status=variable
new load.3000315743M1 bus1=RML1051790761.1.2.3.0,Phases=3,kv=0.22,kW=0.6215,pf=0.92,Vminpu=0.92,Vmaxpu=1.5,model=1,daily=RES2_5,status=variable
new load.3000315744M1 bus1=RML1051790705.1.2.3.0,Phases=3,kv=0.22,kW=0.49436,pf=0.92,Vminpu=0.92,Vmaxpu=1.5,model=1,daily=RES1_3,status=variable
new load.3000315745M1 bus1=RML1051790691.1.2.3.0,Phases=3,kv=0.22,kW=0.5767,pf=0.92,Vminpu=0.92,Vmaxpu=1.5,model=1,daily=RES2_5,status=variable
new load.3000315747M1 bus1=RML1051790663.1.0,Phases=1,kv=0.127,kW=0.49272,pf=0.92,Vminpu=0.92,Vmaxpu=1.5,model=1,daily=RES2_5,status=variable
new load.3000315748M1 bus1=RML1051790628.2.0,Phases=1,kv=0.127,kW=0.3219,pf=0.92,Vminpu=0.92,Vmaxpu=1.5,model=1,daily=RES1_3,status=variable
new load.3000315749M1 bus1=RML1051790642.1.0,Phases=1,kv=0.127,kW=0.91972,pf=0.92,Vminpu=0.92,Vmaxpu=1.5,model=1,daily=RES1_3,status=variable
new load.3000673304M1 bus1=RML1053730188.1.2.0,Phases=2,kv=0.24,kW=2.64714,pf=0.92,Vminpu=0.92,Vmaxpu=1.5,model=1,daily=RUR3_13,status=variable
new load.3000673305M1 bus1=RML1051789977.1.2.0,Phases=2,kv=0.24,kW=1.5827,pf=0.92,Vminpu=0.92,Vmaxpu=1.5,model=1,daily=RES4_13,status=variable
new load.3000673306M1 bus1=RML1051789977.1.2.0,Phases=2,kv=0.24,kW=0.64022,pf=0.92,Vminpu=0.92,Vmaxpu=1.5,model=1,daily=RUR1_16,status=variable
new load.3000673307M1 bus1=RML1051789977.1.2.0,Phases=2,kv=0.24,kW=1.34152,pf=0.92,Vminpu=0.92,Vmaxpu=1.5,model=1,daily=RES2_12,status=variable
new load.3000673308M1 bus1=RML1053730195.1.2.0,Phases=2,kv=0.24,kW=1.3039,pf=0.92,Vminpu=0.92,Vmaxpu=1.5,model=1,daily=RUR2_17,status=variable
new load.3000673309M1 bus1=RML1053730195.1.2.0,Phases=2,kv=0.24,kW=0.15818,pf=0.92,Vminpu=0.92,Vmaxpu=1.5,model=1,daily=RUR1_16,status=variable
new load.3000673310M1 bus1=RML1060365535.1.2.0,Phases=2,kv=0.24,kW=1.4265,pf=0.92,Vminpu=0.92,Vmaxpu=1.5,model=1,daily=RUR2_17,status=variable
new load.3000673311M1 bus1=RML1051790222.1.2.0,Phases=2,kv=0.24,kW=2.00602,pf=0.92,Vminpu=0.92,Vmaxpu=1.5,model=1,daily=RUR2_17,status=variable
new load.3000673312M1 bus1=RML1053730195.1.2.0,Phases=2,kv=0.24,kW=1.21476,pf=0.92,Vminpu=0.92,Vmaxpu=1.5,model=1,daily=RUR2_17,status=variable
new load.3000673314M1 bus1=RML1051789977.1.2.0,Phases=2,kv=0.24,kW=0.93396,pf=0.92,Vminpu=0.92,Vmaxpu=1.5,model=1,daily=RUR1_16,status=variable
new load.3000673315M1 bus1=RML1051789977.1.2.0,Phases=2,kv=0.24,kW=0.44718,pf=0.92,Vminpu=0.92,Vmaxpu=1.5,model=1,daily=RES2_12,status=variable
new load.3000673316M1 bus1=RML1051789977.1.2.0,Phases=2,kv=0.24,kW=0.63882,pf=0.92,Vminpu=0.92,Vmaxpu=1.5,model=1,daily=RES2_12,status=variable
new load.3000673317M1 bus1=RML1051789977.1.2.0,Phases=2,kv=0.24,kW=0.61008,pf=0.92,Vminpu=0.92,Vmaxpu=1.5,model=1,daily=RUR1_16,status=variable
new load.3000673318M1 bus1=RML1051789977.1.2.0,Phases=2,kv=0.24,kW=1.04202,pf=0.92,Vminpu=0.92,Vmaxpu=1.5,model=1,daily=RUR2_17,status=variable
new load.3000673319M1 bus1=RML1051789977.1.2.0,Phases=2,kv=0.24,kW=0.6018,pf=0.92,Vminpu=0.92,Vmaxpu=1.5,model=1,daily=RUR2_17,status=variable
new load.3000673335M1 bus1=RML1054100201.1.2.0,Phases=2,kv=0.24,kW=2.6914,pf=0.92,Vminpu=0.92,Vmaxpu=1.5,model=1,daily=RUR2_17,status=variable
new load.3000673336M1 bus1=RML1053730223.1.2.0,Phases=2,kv=0.24,kW=0.73174,pf=0.92,Vminpu=0.92,Vmaxpu=1.5,model=1,daily=RUR2_18,status=variable
new load.3000673337M1 bus1=RML1054100026.1.2.0,Phases=2,kv=0.24,kW=0.0078,pf=0.92,Vminpu=0.92,Vmaxpu=1.5,model=1,daily=RES1_12,status=variable
new load.3000673338M1 bus1=RML1054099928.1.2.0,Phases=2,kv=0.24,kW=1.63634,pf=0.92,Vminpu=0.92,Vmaxpu=1.5,model=1,daily=RUR2_18,status=variable
new load.3000673339M1 bus1=RML1053730230.1.2.0,Phases=2,kv=0.24,kW=0.77578,pf=0.92,Vminpu=0.92,Vmaxpu=1.5,model=1,daily=RUR1_16,status=variable
new load.3000673340M1 bus1=RML1054099977.1.2.0,Phases=2,kv=0.24,kW=1.11472,pf=0.92,Vminpu=0.92,Vmaxpu=1.5,model=1,daily=RUR1_16,status=variable
new load.3000673341M1 bus1=RML1051791804.1.2.0,Phases=2,kv=0.24,kW=0.23348,pf=0.92,Vminpu=0.92,Vmaxpu=1.5,model=1,daily=RUR1_16,status=variable
new load.3000673342M1 bus1=RML1054100019.1.2.0,Phases=2,kv=0.24,kW=0.8585,pf=0.92,Vminpu=0.92,Vmaxpu=1.5,model=1,daily=RUR2_18,status=variable
new load.3000673343M1 bus1=RML1053622563.1.2.0,Phases=2,kv=0.24,kW=0.13558,pf=0.92,Vminpu=0.92,Vmaxpu=1.5,model=1,daily=RUR1_16,status=variable
new load.3000673344M1 bus1=RML1051790173.1.2.0,Phases=2,kv=0.24,kW=0.91612,pf=0.92,Vminpu=0.92,Vmaxpu=1.5,model=1,daily=RUR2_18,status=variable
new load.3000673345M1 bus1=RML1053730237.1.2.0,Phases=2,kv=0.24,kW=2.17408,pf=0.92,Vminpu=0.92,Vmaxpu=1.5,model=1,daily=RUR3_13,status=variable
new load.3000673346M1 bus1=RML1053730244.1.2.0,Phases=2,kv=0.24,kW=1.37894,pf=0.92,Vminpu=0.92,Vmaxpu=1.5,model=1,daily=RUR3_13,status=variable
new load.3000673347M1 bus1=RML1053730244.1.2.0,Phases=2,kv=0.24,kW=0.64022,pf=0.92,Vminpu=0.92,Vmaxpu=1.5,model=1,daily=RUR1_16,status=variable
new load.3000673348M1 bus1=RML1051790075.1.2.0,Phases=2,kv=0.24,kW=1.56142,pf=0.92,Vminpu=0.92,Vmaxpu=1.5,model=1,daily=RUR2_18,status=variable
new load.3000673355M1 bus1=RML1053730244.1.2.0,Phases=2,kv=0.24,kW=1.15238,pf=0.92,Vminpu=0.92,Vmaxpu=1.5,model=1,daily=RUR1_16,status=variable
new load.3000673356M1 bus1=RML1054773559.1.2.0,Phases=2,kv=0.24,kW=3.2283,pf=0.92,Vminpu=0.92,Vmaxpu=1.5,model=1,daily=RUR4_14,status=variable
new load.3000673357M1 bus1=RML1054773566.1.2.0,Phases=2,kv=0.24,kW=0.99422,pf=0.92,Vminpu=0.92,Vmaxpu=1.5,model=1,daily=RUR1_16,status=variable
new load.3000673358M1 bus1=RML1051790075.1.2.0,Phases=2,kv=0.24,kW=1.28486,pf=0.92,Vminpu=0.92,Vmaxpu=1.5,model=1,daily=RUR2_18,status=variable
new load.3000673359M1 bus1=RML1053730258.1.2.0,Phases=2,kv=0.24,kW=0.82392,pf=0.92,Vminpu=0.92,Vmaxpu=1.5,model=1,daily=RUR2_18,status=variable
new load.3000673360M1 bus1=RML1053730258.1.2.0,Phases=2,kv=0.24,kW=0.20288,pf=0.92,Vminpu=0.92,Vmaxpu=1.5,model=1,daily=RES1_12,status=variable
new load.3000673363M1 bus1=RML1051790075.1.2.0,Phases=2,kv=0.24,kW=0.59346,pf=0.92,Vminpu=0.92,Vmaxpu=1.5,model=1,daily=RUR2_18,status=variable
new load.3000673364M1 bus1=RML1053730265.1.2.0,Phases=2,kv=0.24,kW=2.24708,pf=0.92,Vminpu=0.92,Vmaxpu=1.5,model=1,daily=RUR2_18,status=variable
new load.3000673366M1 bus1=RML1053730251.1.2.0,Phases=2,kv=0.24,kW=0.97374,pf=0.92,Vminpu=0.92,Vmaxpu=1.5,model=1,daily=RUR2_18,status=variable
new load.3000673368M1 bus1=RML1053730237.1.2.0,Phases=2,kv=0.24,kW=0.40672,pf=0.92,Vminpu=0.92,Vmaxpu=1.5,model=1,daily=RUR1_16,status=variable
new load.3000673369M1 bus1=RML1053730244.1.2.0,Phases=2,kv=0.24,kW=1.0083,pf=0.92,Vminpu=0.92,Vmaxpu=1.5,model=1,daily=RUR2_18,status=variable
new load.3000673372M1 bus1=RML1053730286.1.2.0,Phases=2,kv=0.24,kW=0.74566,pf=0.92,Vminpu=0.92,Vmaxpu=1.5,model=1,daily=RUR1_16,status=variable
new load.3000673382M1 bus1=RML1053730293.1.2.0,Phases=2,kv=0.24,kW=0.8963,pf=0.92,Vminpu=0.92,Vmaxpu=1.5,model=1,daily=RUR1_16,status=variable
new load.3000673383M1 bus1=RML1053730293.1.2.0,Phases=2,kv=0.24,kW=0.34336,pf=0.92,Vminpu=0.92,Vmaxpu=1.5,model=1,daily=RES1_12,status=variable
new load.3000673385M1 bus1=RML1051792875.1.2.0,Phases=2,kv=0.24,kW=0.88876,pf=0.92,Vminpu=0.92,Vmaxpu=1.5,model=1,daily=RUR1_16,status=variable
new load.3000673386M1 bus1=RML1053730293.1.2.0,Phases=2,kv=0.24,kW=1.37834,pf=0.92,Vminpu=0.92,Vmaxpu=1.5,model=1,daily=RUR1_16,status=variable
new load.3000673387M1 bus1=RML1053730293.1.2.0,Phases=2,kv=0.24,kW=0.47452,pf=0.92,Vminpu=0.92,Vmaxpu=1.5,model=1,daily=RUR1_16,status=variable
new load.3000673388M1 bus1=RML1053730293.1.2.0,Phases=2,kv=0.24,kW=0.9046,pf=0.92,Vminpu=0.92,Vmaxpu=1.5,model=1,daily=RUR2_18,status=variable
new load.3001034491M1 bus1=RML1051815191.1.2.3.0,Phases=3,kv=0.22,kW=0.6305,pf=0.92,Vminpu=0.92,Vmaxpu=1.5,model=1,daily=COM1_25,status=variable
new load.3001034493M1 bus1=RML1051815149.1.2.3.0,Phases=3,kv=0.22,kW=0.00358,pf=0.92,Vminpu=0.92,Vmaxpu=1.5,model=1,daily=COM1_25,status=variable
new load.3001034494M1 bus1=RML1051815135.1.2.0,Phases=2,kv=0.22,kW=0.23158,pf=0.92,Vminpu=0.92,Vmaxpu=1.5,model=1,daily=RES2_27,status=variable
new load.3001034495M1 bus1=RML1051815016.1.0,Phases=1,kv=0.127,kW=0.32708,pf=0.92,Vminpu=0.92,Vmaxpu=1.5,model=1,daily=RES2_27,status=variable
new load.3001034496M1 bus1=RML1051814897.2.3.0,Phases=2,kv=0.22,kW=0.16952,pf=0.92,Vminpu=0.92,Vmaxpu=1.5,model=1,daily=RES2_27,status=variable
new load.3001034498M1 bus1=RML1051814876.1.0,Phases=1,kv=0.127,kW=0.79536,pf=0.92,Vminpu=0.92,Vmaxpu=1.5,model=1,daily=RES1_24,status=variable
new load.3001034499M1 bus1=RML1051814869.3.0,Phases=1,kv=0.127,kW=0.00954,pf=0.92,Vminpu=0.92,Vmaxpu=1.5,model=1,daily=RES2_27,status=variable
new load.3001034500M1 bus1=RML1051815478.1.2.3.0,Phases=3,kv=0.22,kW=0.00716,pf=0.92,Vminpu=0.92,Vmaxpu=1.5,model=1,daily=COM1_25,status=variable
new load.3001034501M1 bus1=RML1051815569.1.3.0,Phases=2,kv=0.22,kW=0.5217,pf=0.92,Vminpu=0.92,Vmaxpu=1.5,model=1,daily=RES3_19,status=variable
new load.3001034502M1 bus1=RML1051815590.1.2.3.0,Phases=3,kv=0.22,kW=0.47646,pf=0.92,Vminpu=0.92,Vmaxpu=1.5,model=1,daily=COM1_25,status=variable
new load.3001034503M1 bus1=RML1051815576.1.0,Phases=1,kv=0.127,kW=1.06056,pf=0.92,Vminpu=0.92,Vmaxpu=1.5,model=1,daily=RES4_20,status=variable
new load.3001034505M1 bus1=RML1051815520.2.0,Phases=1,kv=0.127,kW=0.73102,pf=0.92,Vminpu=0.92,Vmaxpu=1.5,model=1,daily=RES3_19,status=variable
new load.3001034506M1 bus1=RML1051815513.1.0,Phases=1,kv=0.127,kW=0.41542,pf=0.92,Vminpu=0.92,Vmaxpu=1.5,model=1,daily=RES2_27,status=variable
new load.3001034508M1 bus1=RML1051815471.1.2.0,Phases=2,kv=0.22,kW=0.32948,pf=0.92,Vminpu=0.92,Vmaxpu=1.5,model=1,daily=RES2_27,status=variable
new load.3001034509M1 bus1=RML1051815464.3.0,Phases=1,kv=0.127,kW=0.2674,pf=0.92,Vminpu=0.92,Vmaxpu=1.5,model=1,daily=RES2_27,status=variable
new load.3001034510M1 bus1=RML1051815457.1.0,Phases=1,kv=0.127,kW=0.38644,pf=0.92,Vminpu=0.92,Vmaxpu=1.5,model=1,daily=RES3_19,status=variable
new load.3001034511M1 bus1=RML1051815443.2.0,Phases=1,kv=0.127,kW=0.74392,pf=0.92,Vminpu=0.92,Vmaxpu=1.5,model=1,daily=RES3_19,status=variable
new load.3001034512M1 bus1=RML1051815422.1.2.0,Phases=2,kv=0.22,kW=0.26978,pf=0.92,Vminpu=0.92,Vmaxpu=1.5,model=1,daily=RES2_27,status=variable
new load.3001034514M1 bus1=RML1051814043.3.0,Phases=1,kv=0.127,kW=0.57362,pf=0.92,Vminpu=0.92,Vmaxpu=1.5,model=1,daily=RES4_20,status=variable
new load.3001034515M1 bus1=RML1051814050.1.0,Phases=1,kv=0.127,kW=0.39872,pf=0.92,Vminpu=0.92,Vmaxpu=1.5,model=1,daily=RES2_27,status=variable
new load.3001034516M1 bus1=RML1051814036.2.3.0,Phases=2,kv=0.22,kW=0.24352,pf=0.92,Vminpu=0.92,Vmaxpu=1.5,model=1,daily=RES2_27,status=variable
new load.3001034517M1 bus1=RML1051815401.3.0,Phases=1,kv=0.127,kW=0.01396,pf=0.92,Vminpu=0.92,Vmaxpu=1.5,model=1,daily=RES1_24,status=variable
new load.3001034518M1 bus1=RML1051815415.3.0,Phases=1,kv=0.127,kW=0.21964,pf=0.92,Vminpu=0.92,Vmaxpu=1.5,model=1,daily=RES2_27,status=variable
new load.3001034519M1 bus1=RML1051814771.2.0,Phases=1,kv=0.127,kW=0.85118,pf=0.92,Vminpu=0.92,Vmaxpu=1.5,model=1,daily=RES1_24,status=variable
new load.3001034520M1 bus1=RML1051814778.1.0,Phases=1,kv=0.127,kW=0.62792,pf=0.92,Vminpu=0.92,Vmaxpu=1.5,model=1,daily=RES1_24,status=variable
new load.3001034521M1 bus1=RML1051814785.1.0,Phases=1,kv=0.127,kW=0.24114,pf=0.92,Vminpu=0.92,Vmaxpu=1.5,model=1,daily=RES2_27,status=variable
new load.3001034522M1 bus1=RML1051814064.1.2.3.0,Phases=3,kv=0.22,kW=0.34618,pf=0.92,Vminpu=0.92,Vmaxpu=1.5,model=1,daily=RES2_27,status=variable
new load.3001034523M1 bus1=RML1051814071.2.0,Phases=1,kv=0.127,kW=0.2292,pf=0.92,Vminpu=0.92,Vmaxpu=1.5,model=1,daily=RES2_27,status=variable
new load.3001034524M1 bus1=RML1051814008.3.0,Phases=1,kv=0.127,kW=0.22682,pf=0.92,Vminpu=0.92,Vmaxpu=1.5,model=1,daily=RES2_27,status=variable
new load.3001034525M1 bus1=RML1051814022.1.2.0,Phases=2,kv=0.22,kW=0.52492,pf=0.92,Vminpu=0.92,Vmaxpu=1.5,model=1,daily=RES3_19,status=variable
new load.3001034526M1 bus1=RML1051814029.1.2.0,Phases=2,kv=0.22,kW=0.30272,pf=0.92,Vminpu=0.92,Vmaxpu=1.5,model=1,daily=RES3_19,status=variable
new load.3001034527M1 bus1=RML1051813973.1.2.3.0,Phases=3,kv=0.22,kW=0.6169,pf=0.92,Vminpu=0.92,Vmaxpu=1.5,model=1,daily=RES6_15,status=variable
new load.3001034528M1 bus1=RML1051814001.1.2.0,Phases=2,kv=0.22,kW=1.18606,pf=0.92,Vminpu=0.92,Vmaxpu=1.5,model=1,daily=RES1_24,status=variable
new load.3001034529M1 bus1=RML1051814001.1.2.0,Phases=2,kv=0.22,kW=0.4734,pf=0.92,Vminpu=0.92,Vmaxpu=1.5,model=1,daily=RES3_19,status=variable
new load.3001034531M1 bus1=RML1051814764.1.2.0,Phases=2,kv=0.22,kW=0.93714,pf=0.92,Vminpu=0.92,Vmaxpu=1.5,model=1,daily=RES3_19,status=variable
new load.3001034532M1 bus1=RML1051814883.1.2.0,Phases=2,kv=0.22,kW=0.19816,pf=0.92,Vminpu=0.92,Vmaxpu=1.5,model=1,daily=RES2_27,status=variable
new load.3001034534M1 bus1=RML1051814890.2.0,Phases=1,kv=0.127,kW=0.23874,pf=0.92,Vminpu=0.92,Vmaxpu=1.5,model=1,daily=RES2_27,status=variable
new load.3001034535M1 bus1=RML1051814904.1.2.3.0,Phases=3,kv=0.22,kW=0.44408,pf=0.92,Vminpu=0.92,Vmaxpu=1.5,model=1,daily=RES2_27,status=variable
new load.3001034536M1 bus1=RML1051814904.1.2.3.0,Phases=3,kv=0.22,kW=0.39872,pf=0.92,Vminpu=0.92,Vmaxpu=1.5,model=1,daily=RES2_27,status=variable
new load.3001034537M1 bus1=RML1051815009.3.0,Phases=1,kv=0.127,kW=0.51848,pf=0.92,Vminpu=0.92,Vmaxpu=1.5,model=1,daily=RES3_19,status=variable
new load.3001034538M1 bus1=RML1051815114.1.2.0,Phases=2,kv=0.22,kW=0.191,pf=0.92,Vminpu=0.92,Vmaxpu=1.5,model=1,daily=RES2_27,status=variable
new load.3001034539M1 bus1=RML1051815121.2.0,Phases=1,kv=0.127,kW=0.3056,pf=0.92,Vminpu=0.92,Vmaxpu=1.5,model=1,daily=RES2_27,status=variable
new load.3001034541M1 bus1=RML1051815156.1.2.3.0,Phases=3,kv=0.22,kW=0.79542,pf=0.92,Vminpu=0.92,Vmaxpu=1.5,model=1,daily=RES4_20,status=variable
new load.3001034542M1 bus1=RML1060738641.1.2.3.0,Phases=3,kv=0.22,kW=0.62692,pf=0.92,Vminpu=0.92,Vmaxpu=1.5,model=1,daily=COM1_25,status=variable
new load.3001034543M1 bus1=RML1051815163.2.0,Phases=1,kv=0.127,kW=0.43798,pf=0.92,Vminpu=0.92,Vmaxpu=1.5,model=1,daily=RES3_19,status=variable
new load.3001034544M1 bus1=RML1051815177.1.3.0,Phases=2,kv=0.22,kW=0.71164,pf=0.92,Vminpu=0.92,Vmaxpu=1.5,model=1,daily=RES1_24,status=variable
new load.3001034547M1 bus1=RML1051815023.1.2.3.0,Phases=3,kv=0.22,kW=0.2865,pf=0.92,Vminpu=0.92,Vmaxpu=1.5,model=1,daily=RES2_27,status=variable
new load.3001034548M1 bus1=RML1051815030.2.3.0,Phases=2,kv=0.22,kW=0.84696,pf=0.92,Vminpu=0.92,Vmaxpu=1.5,model=1,daily=RES3_19,status=variable
new load.3001034550M1 bus1=RML1051815044.3.0,Phases=1,kv=0.127,kW=0.32708,pf=0.92,Vminpu=0.92,Vmaxpu=1.5,model=1,daily=RES2_27,status=variable
new load.3001034551M1 bus1=RML1051815051.2.0,Phases=1,kv=0.127,kW=0.72558,pf=0.92,Vminpu=0.92,Vmaxpu=1.5,model=1,daily=RES1_24,status=variable
new load.3001034553M1 bus1=RML1051815079.3.0,Phases=1,kv=0.127,kW=0.82326,pf=0.92,Vminpu=0.92,Vmaxpu=1.5,model=1,daily=RES1_24,status=variable
new load.3001034554M1 bus1=RML1051815065.3.0,Phases=1,kv=0.127,kW=0.31276,pf=0.92,Vminpu=0.92,Vmaxpu=1.5,model=1,daily=RES2_27,status=variable
new load.3001034555M1 bus1=RML1051814981.1.0,Phases=1,kv=0.127,kW=0.23158,pf=0.92,Vminpu=0.92,Vmaxpu=1.5,model=1,daily=RES2_27,status=variable
new load.3001034556M1 bus1=RML1051815107.2.3.0,Phases=2,kv=0.22,kW=0.25546,pf=0.92,Vminpu=0.92,Vmaxpu=1.5,model=1,daily=RES2_27,status=variable
new load.3001034557M1 bus1=RML1051814932.1.2.0,Phases=2,kv=0.22,kW=0.3056,pf=0.92,Vminpu=0.92,Vmaxpu=1.5,model=1,daily=RES2_27,status=variable
new load.3001034558M1 bus1=RML1051814918.1.0,Phases=1,kv=0.127,kW=0.46052,pf=0.92,Vminpu=0.92,Vmaxpu=1.5,model=1,daily=RES3_19,status=variable
new load.3001034559M1 bus1=RML1051814841.3.0,Phases=1,kv=0.127,kW=0.48838,pf=0.92,Vminpu=0.92,Vmaxpu=1.5,model=1,daily=RES1_24,status=variable
new load.3001034560M1 bus1=RML1051814834.3.0,Phases=1,kv=0.127,kW=1.15816,pf=0.92,Vminpu=0.92,Vmaxpu=1.5,model=1,daily=RES1_24,status=variable
new load.3001034561M1 bus1=RML1051814820.3.0,Phases=1,kv=0.127,kW=0.2674,pf=0.92,Vminpu=0.92,Vmaxpu=1.5,model=1,daily=RES2_27,status=variable
new load.3001034562M1 bus1=RML1051814806.3.0,Phases=1,kv=0.127,kW=0.23874,pf=0.92,Vminpu=0.92,Vmaxpu=1.5,model=1,daily=RES2_27,status=variable
new load.3001034563M1 bus1=RML1051814736.2.3.0,Phases=2,kv=0.22,kW=0.06684,pf=0.92,Vminpu=0.92,Vmaxpu=1.5,model=1,daily=RES2_27,status=variable
new load.3001034564M1 bus1=RML1051814722.2.3.0,Phases=2,kv=0.22,kW=0.53136,pf=0.92,Vminpu=0.92,Vmaxpu=1.5,model=1,daily=RES3_19,status=variable
new load.3001034565M1 bus1=RML1051814715.2.0,Phases=1,kv=0.127,kW=0.32948,pf=0.92,Vminpu=0.92,Vmaxpu=1.5,model=1,daily=RES2_27,status=variable
new load.3001034567M1 bus1=RML1051814666.1.0,Phases=1,kv=0.127,kW=0.26262,pf=0.92,Vminpu=0.92,Vmaxpu=1.5,model=1,daily=RES2_27,status=variable
new load.3001034568M1 bus1=RML1051814638.2.0,Phases=1,kv=0.127,kW=0.39154,pf=0.92,Vminpu=0.92,Vmaxpu=1.5,model=1,daily=RES2_27,status=variable
new load.3001034569M1 bus1=RML1051814589.1.2.0,Phases=2,kv=0.22,kW=0.6312,pf=0.92,Vminpu=0.92,Vmaxpu=1.5,model=1,daily=RES3_19,status=variable
new load.3001034570M1 bus1=RML1051814575.2.3.0,Phases=2,kv=0.22,kW=0.67628,pf=0.92,Vminpu=0.92,Vmaxpu=1.5,model=1,daily=RES3_19,status=variable
new load.3001034571M1 bus1=RML1051814568.2.3.0,Phases=2,kv=0.22,kW=0.67766,pf=0.92,Vminpu=0.92,Vmaxpu=1.5,model=1,daily=RES5_20,status=variable
new load.3001034572M1 bus1=RML1051814547.1.2.3.0,Phases=3,kv=0.22,kW=0.2865,pf=0.92,Vminpu=0.92,Vmaxpu=1.5,model=1,daily=RES2_27,status=variable
new load.3001034573M1 bus1=RML1051814554.3.0,Phases=1,kv=0.127,kW=0.24592,pf=0.92,Vminpu=0.92,Vmaxpu=1.5,model=1,daily=RES2_27,status=variable
new load.3001034574M1 bus1=RML1051814540.1.2.0,Phases=2,kv=0.22,kW=0.28172,pf=0.92,Vminpu=0.92,Vmaxpu=1.5,model=1,daily=RES2_27,status=variable
new load.3001034576M1 bus1=RML1051814582.2.3.0,Phases=2,kv=0.22,kW=0.20054,pf=0.92,Vminpu=0.92,Vmaxpu=1.5,model=1,daily=RES2_27,status=variable
new load.3001034578M1 bus1=RML1051814624.1.2.0,Phases=2,kv=0.22,kW=0.33664,pf=0.92,Vminpu=0.92,Vmaxpu=1.5,model=1,daily=RES2_27,status=variable
new load.3001034579M1 bus1=RML1051814631.3.0,Phases=1,kv=0.127,kW=0.26978,pf=0.92,Vminpu=0.92,Vmaxpu=1.5,model=1,daily=RES2_27,status=variable
new load.3001034580M1 bus1=RML1051814645.3.0,Phases=1,kv=0.127,kW=0.7814,pf=0.92,Vminpu=0.92,Vmaxpu=1.5,model=1,daily=RES1_24,status=variable
new load.3001034581M1 bus1=RML1051814659.3.0,Phases=1,kv=0.127,kW=0.23158,pf=0.92,Vminpu=0.92,Vmaxpu=1.5,model=1,daily=RES2_27,status=variable
new load.3001034582M1 bus1=RML1051814673.2.0,Phases=1,kv=0.127,kW=0.2101,pf=0.92,Vminpu=0.92,Vmaxpu=1.5,model=1,daily=RES2_27,status=variable
new load.3001034583M1 bus1=RML1051814680.1.0,Phases=1,kv=0.127,kW=0.21488,pf=0.92,Vminpu=0.92,Vmaxpu=1.5,model=1,daily=RES2_27,status=variable
new load.3001034584M1 bus1=RML1051814603.2.0,Phases=1,kv=0.127,kW=0.86512,pf=0.92,Vminpu=0.92,Vmaxpu=1.5,model=1,daily=RES1_24,status=variable
new load.3001034585M1 bus1=RML1051814316.2.3.0,Phases=2,kv=0.22,kW=0.5442,pf=0.92,Vminpu=0.92,Vmaxpu=1.5,model=1,daily=RES1_24,status=variable
new load.3001034587M1 bus1=RML1051814225.1.0,Phases=1,kv=0.127,kW=0.25068,pf=0.92,Vminpu=0.92,Vmaxpu=1.5,model=1,daily=RES2_27,status=variable
new load.3001034588M1 bus1=RML1051814134.3.0,Phases=1,kv=0.127,kW=0.5157,pf=0.92,Vminpu=0.92,Vmaxpu=1.5,model=1,daily=RES2_27,status=variable
new load.3001034589M1 bus1=RML1051814127.2.3.0,Phases=2,kv=0.22,kW=0.40466,pf=0.92,Vminpu=0.92,Vmaxpu=1.5,model=1,daily=RES1_24,status=variable
new load.3001034590M1 bus1=RML1051814176.3.0,Phases=1,kv=0.127,kW=0.25546,pf=0.92,Vminpu=0.92,Vmaxpu=1.5,model=1,daily=RES2_27,status=variable