new line.1159942 bus1=BBT1327641.1.2.0,bus2=BBT1327634.1.2.0,Phases=2,Linecode=BT106_BT106_7_2_1,Length=0.028310000,Units=km
new line.1159949 bus1=BBT1327655.1.2.0,bus2=BBT1327662.1.2.0,Phases=2,Linecode=BT106_BT106_7_2_1,Length=0.027666000,Units=km
new line.1159956 bus1=BBT1327655.1.2.0,bus2=BBT3501043.1.2.0,Phases=2,Linecode=BT816_BT816_4_2_2,Length=0.041412000,Units=km
new line.1159963 bus1=BBT1327662.1.2.0,bus2=BBT1327648.1.2.0,Phases=2,Linecode=BT106_BT106_7_2_1,Length=0.027900000,Units=km
new line.1159970 bus1=BBT1327669.1.2.0,bus2=BBT1327641.1.2.0,Phases=2,Linecode=BT106_BT106_7_2_1,Length=0.030025000,Units=km
new line.1159977 bus1=BBT1327676.1.2.0,bus2=BBT1327683.1.2.0,Phases=2,Linecode=BT304_BT304_7_2_1,Length=0.000501000,Units=km
new line.1159984 bus1=BBT1327690.1.2.0,bus2=BBT1327697.1.2.0,Phases=2,Linecode=BT316_BT316_7_2_1,Length=0.000501000,Units=km
new line.1159991 bus1=BBT1327704.1.2.0,bus2=BBT1327711.1.2.0,Phases=2,Linecode=BT304_BT304_7_2_1,Length=0.000501000,Units=km
new line.1159998 bus1=BBT1327718.1.2.0,bus2=BBT1327725.1.2.0,Phases=2,Linecode=BT308_BT308_7_2_1,Length=0.000501000,Units=km
new line.1160005 bus1=BBT1327732.1.2.0,bus2=BBT1327739.1.2.0,Phases=2,Linecode=BT307_BT307_7_2_1,Length=0.000501000,Units=km
new line.1160012 bus1=BBT1327746.1.2.0,bus2=BBT1327753.1.2.0,Phases=2,Linecode=BT307_BT307_7_2_1,Length=0.000501000,Units=km
new line.1160019 bus1=BBT1327760.1.2.0,bus2=BBT1327767.1.2.0,Phases=2,Linecode=BT518_BT518_7_2_1,Length=0.000501000,Units=km
new line.1160026 bus1=BBT1327767.1.2.0,bus2=BBT3891454.1.2.0,Phases=2,Linecode=BT107_BT107_7_2_1,Length=0.036065000,Units=km
new line.1160033 bus1=BBT1327774.1.2.0,bus2=BBT1327781.1.2.0,Phases=2,Linecode=BT317_BT317_7_2_1,Length=0.000501000,Units=km
new line.1160040 bus1=BBT1327788.1.2.0,bus2=BBT1327795.1.2.0,Phases=2,Linecode=BT304_BT304_7_2_1,Length=0.000501000,Units=km
new line.1160047 bus1=BBT1327802.1.2.0,bus2=BBT1327809.1.2.0,Phases=2,Linecode=BT304_BT304_7_2_1,Length=0.000501000,Units=km
new line.1160061 bus1=BBT1327816.1.2.0,bus2=BBT1327823.1.2.0,Phases=2,Linecode=BT307_BT307_7_2_1,Length=0.000501000,Units=km
new line.1160068 bus1=BBT1327830.1.2.0,bus2=BBT1327837.1.2.0,Phases=2,Linecode=BT316_BT316_7_2_1,Length=0.000501000,Units=km
new line.1160075 bus1=BBT1327844.1.2.0,bus2=BBT1327851.1.2.0,Phases=2,Linecode=BT304_BT304_7_2_1,Length=0.000501000,Units=km
new line.1160082 bus1=BBT1327858.1.2.0,bus2=BBT1327865.1.2.0,Phases=2,Linecode=BT307_BT307_7_2_1,Length=0.000501000,Units=km
new line.1160089 bus1=BBT1327872.1.2.0,bus2=BBT1327879.1.2.0,Phases=2,Linecode=BT513_BT513_7_2_1,Length=0.000501000,Units=km
new line.1160096 bus1=BBT1327879.1.2.0,bus2=BBT3911299.1.2.0,Phases=2,Linecode=BT108_BT108_7_2_1,Length=0.090379000,Units=km
new line.1160103 bus1=BBT1327886.1.2.0,bus2=BBT1327893.1.2.0,Phases=2,Linecode=BT304_BT304_7_2_1,Length=0.000501000,Units=km
new line.1160110 bus1=BBT1327900.1.2.0,bus2=BBT1327907.1.2.0,Phases=2,Linecode=BT307_BT307_7_2_1,Length=0.000501000,Units=km
new line.1160117 bus1=BBT1327914.1.2.0,bus2=BBT1327921.1.2.0,Phases=2,Linecode=BT304_BT304_7_2_1,Length=0.000501000,Units=km
new line.1160124 bus1=BBT1327928.1.2.0,bus2=BBT127202429.1.2.0,Phases=2,Linecode=BT518_BT518_7_2_1,Length=0.000501000,Units=km
new line.1160131 bus1=BBT127202429.1.2.0,bus2=BBT3211992.1.2.0,Phases=2,Linecode=BT808_BT808_4_2_3,Length=0.062659000,Units=km
new line.1160138 bus1=BBT127202429.1.2.0,bus2=BBT4333980.1.2.0,Phases=2,Linecode=BT108_BT107_7_2_1,Length=0.039836000,Units=km
new line.1160145 bus1=BBT1327942.1.2.0,bus2=BBT1327949.1.2.0,Phases=2,Linecode=BT304_BT304_7_2_1,Length=0.000501000,Units=km
new line.1160152 bus1=BBT1327956.1.2.0,bus2=BBT1327963.1.2.0,Phases=2,Linecode=BT304_BT304_7_2_1,Length=0.000501000,Units=km
new line.1160159 bus1=BBT1327970.1.2.0,bus2=BBT1327977.1.2.0,Phases=2,Linecode=BT304_BT304_7_2_1,Length=0.000501000,Units=km
new line.1160166 bus1=BBT1327984.1.2.0,bus2=BBT1327991.1.2.0,Phases=2,Linecode=BT304_BT304_7_2_1,Length=0.000501000,Units=km
new line.1160173 bus1=BBT1327998.1.2.0,bus2=BBT1328005.1.2.0,Phases=2,Linecode=BT316_BT316_7_2_1,Length=0.000501000,Units=km
new line.1160180 bus1=BBT1328012.1.2.0,bus2=BBT1328019.1.2.0,Phases=2,Linecode=BT518_BT518_7_2_1,Length=0.000501000,Units=km
new line.1160187 bus1=BBT1328019.1.2.0,bus2=BBT3186680.1.2.0,Phases=2,Linecode=BT808_BT808_4_2_3,Length=0.031393000,Units=km
new line.1160201 bus1=BBT1328026.1.2.3.0,bus2=BBT1328033.1.2.3.0,Phases=3,Linecode=BT307_BT307_7_3_1,Length=0.000501000,Units=km
new line.1160208 bus1=BBT1328040.1.2.0,bus2=BBT1328047.1.2.0,Phases=2,Linecode=BT304_BT304_7_2_1,Length=0.000501000,Units=km
new line.1160215 bus1=BBT1328054.1.2.0,bus2=BBT1328061.1.2.0,Phases=2,Linecode=BT316_BT316_7_2_1,Length=0.000501000,Units=km
new line.1160222 bus1=BBT1328068.1.2.0,bus2=BBT1328075.1.2.0,Phases=2,Linecode=BT304_BT304_7_2_1,Length=0.000501000,Units=km
new line.1160229 bus1=BBT1328082.1.2.0,bus2=BBT1328089.1.2.0,Phases=2,Linecode=BT316_BT316_7_2_1,Length=0.000501000,Units=km
new line.1160236 bus1=BBT1328096.1.2.0,bus2=BBT1328103.1.2.0,Phases=2,Linecode=BT307_BT307_7_2_1,Length=0.000501000,Units=km
new line.1160243 bus1=BBT1328110.1.2.0,bus2=BBT1328117.1.2.0,Phases=2,Linecode=BT304_BT304_7_2_1,Length=0.000501000,Units=km
new line.1160250 bus1=BBT1328124.1.2.0,bus2=BBT1328131.1.2.0,Phases=2,Linecode=BT304_BT304_7_2_1,Length=0.000501000,Units=km
new line.1160257 bus1=BBT1328138.1.2.0,bus2=BBT1328145.1.2.0,Phases=2,Linecode=BT518_BT518_7_2_1,Length=0.000501000,Units=km
new line.1160264 bus1=BBT1328152.1.2.0,bus2=BBT1328159.1.2.0,Phases=2,Linecode=BT304_BT304_7_2_1,Length=0.000501000,Units=km
new line.1160271 bus1=BBT1328166.1.2.0,bus2=BBT1328173.1.2.0,Phases=2,Linecode=BT307_BT307_7_2_1,Length=0.000501000,Units=km
new line.1160278 bus1=BBT1328180.1.2.0,bus2=BBT1328187.1.2.0,Phases=2,Linecode=BT513_BT513_7_2_1,Length=0.000501000,Units=km
new line.1160292 bus1=BBT1328194.1.2.0,bus2=BBT1328201.1.2.0,Phases=2,Linecode=BT304_BT304_7_2_1,Length=0.000501000,Units=km
new line.1160306 bus1=BBT1328222.1.2.0,bus2=BBT1328215.1.2.0,Phases=2,Linecode=BT107_BT106_7_2_1,Length=0.045619000,Units=km
new line.1160313 bus1=BBT1328229.1.2.0,bus2=BBT1328222.1.2.0,Phases=2,Linecode=BT108_BT107_7_2_1,Length=0.056602000,Units=km
new line.1160320 bus1=BBT1328208.1.2.0,bus2=BBT1328229.1.2.0,Phases=2,Linecode=BT307_BT307_7_2_1,Length=0.000501000,Units=km
new line.1160327 bus1=BBT1328229.1.2.0,bus2=BBT1328236.1.2.0,Phases=2,Linecode=BT108_BT107_7_2_1,Length=0.042202000,Units=km
new line.1160334 bus1=BBT1328236.1.2.0,bus2=BBT1328243.1.2.0,Phases=2,Linecode=BT107_BT106_7_2_1,Length=0.049410000,Units=km
new line.1160341 bus1=BBT1328243.1.2.0,bus2=BBT1328250.1.2.0,Phases=2,Linecode=BT107_BT106_7_2_1,Length=0.026484000,Units=km
new line.1160348 bus1=BBT1328250.1.2.0,bus2=BBT1328257.1.2.0,Phases=2,Linecode=BT107_BT106_7_2_1,Length=0.040123000,Units=km
new line.1160362 bus1=BBT1328264.1.2.0,bus2=BBT1328271.1.2.0,Phases=2,Linecode=BT307_BT307_7_2_1,Length=0.000501000,Units=km
new line.1160369 bus1=BBT1328278.1.2.0,bus2=BBT1328285.1.2.0,Phases=2,Linecode=BT308_BT308_7_2_1,Length=0.000501000,Units=km
new line.1160376 bus1=BBT1328285.1.2.0,bus2=BBT3912104.1.2.0,Phases=2,Linecode=BT108_BT108_7_2_1,Length=0.060844000,Units=km
new line.1160383 bus1=BBT1328292.1.2.0,bus2=BBT1328299.1.2.0,Phases=2,Linecode=BT304_BT304_7_2_1,Length=0.000501000,Units=km
new line.1162462 bus1=BBT1331162.1.2.0,bus2=BBT3633805.1.2.0,Phases=2,Linecode=BT814_BT814_4_2_3,Length=0.039216000,Units=km
new line.1162469 bus1=BBT1331169.1.2.0,bus2=BBT1331176.1.2.0,Phases=2,Linecode=BT518_BT518_7_2_1,Length=0.000501000,Units=km
new line.1162476 bus1=BBT1331176.1.2.0,bus2=BBT3159366.1.2.0,Phases=2,Linecode=BT808_BT808_4_2_3,Length=0.044566000,Units=km
new line.1162483 bus1=BBT1331183.1.2.0,bus2=BBT1331190.1.2.0,Phases=2,Linecode=BT304_BT304_7_2_1,Length=0.000501000,Units=km
new line.1162490 bus1=BBT1331197.1.2.0,bus2=BBT1331204.1.2.0,Phases=2,Linecode=BT307_BT307_7_2_1,Length=0.000501000,Units=km
new line.1162560 bus1=BBT1331288.1.2.0,bus2=BBT1331295.1.2.0,Phases=2,Linecode=BT513_BT513_7_2_1,Length=0.000501000,Units=km
new line.1162567 bus1=BBT1331295.1.2.0,bus2=BBT2863182.1.2.0,Phases=2,Linecode=BT108_BT107_7_2_1,Length=0.032025000,Units=km
new line.1162574 bus1=BBT1331295.1.2.0,bus2=BBT2863154.1.2.0,Phases=2,Linecode=BT108_BT107_7_2_1,Length=0.028292000,Units=km
new line.1162581 bus1=BBT1331302.1.2.0,bus2=BBT2863161.1.2.0,Phases=2,Linecode=BT108_BT107_7_2_1,Length=0.041785000,Units=km
new line.1162588 bus1=BBT1331309.1.2.0,bus2=BBT2863168.1.2.0,Phases=2,Linecode=BT807_BT807_4_2_3,Length=0.032659000,Units=km
new line.1162595 bus1=BBT1331316.1.2.0,bus2=BBT2863196.1.2.0,Phases=2,Linecode=BT807_BT807_4_2_3,Length=0.053166000,Units=km
new line.1162602 bus1=BBT1331323.1.2.0,bus2=BBT2863189.1.2.0,Phases=2,Linecode=BT108_BT107_7_2_1,Length=0.030241000,Units=km
new line.1162630 bus1=BBT1331372.1.2.0,bus2=BBT1331379.1.2.0,Phases=2,Linecode=BT307_BT307_7_2_1,Length=0.000501000,Units=km
new line.1162637 bus1=BBT1331386.1.2.0,bus2=BBT1331393.1.2.0,Phases=2,Linecode=BT317_BT317_7_2_1,Length=0.000501000,Units=km
new line.1162644 bus1=BBT1331400.1.2.0,bus2=BBT1331407.1.2.0,Phases=2,Linecode=BT307_BT307_7_2_1,Length=0.000501000,Units=km
new line.1162658 bus1=BBT1331414.1.2.0,bus2=BBT1331421.1.2.0,Phases=2,Linecode=BT518_BT518_7_2_1,Length=0.000501000,Units=km
new line.1162665 bus1=BBT1331421.1.2.0,bus2=BBT3159401.1.2.0,Phases=2,Linecode=BT808_BT808_4_2_3,Length=0.035067000,Units=km
new line.1162672 bus1=BBT1331428.1.2.0,bus2=BBT1331435.1.2.0,Phases=2,Linecode=BT316_BT316_7_2_1,Length=0.000501000,Units=km
new line.1162679 bus1=BBT1331442.1.2.0,bus2=BBT1331449.1.2.0,Phases=2,Linecode=BT316_BT316_7_2_1,Length=0.000501000,Units=km
new line.1162707 bus1=BBT1331498.1.2.0,bus2=BBT1331505.1.2.0,Phases=2,Linecode=BT317_BT317_7_2_1,Length=0.000501000,Units=km
new line.1162721 bus1=BBT1331526.1.2.0,bus2=BBT1331533.1.2.0,Phases=2,Linecode=BT316_BT316_7_2_1,Length=0.000501000,Units=km
new line.1162735 bus1=BBT1331554.1.2.0,bus2=BBT1331561.1.2.0,Phases=2,Linecode=BT307_BT307_7_2_1,Length=0.000501000,Units=km
new line.1162742 bus1=BBT1331568.1.2.0,bus2=BBT1331575.1.2.0,Phases=2,Linecode=BT304_BT304_7_2_1,Length=0.000501000,Units=km
new line.1162770 bus1=BBT1331610.1.2.0,bus2=BBT1331617.1.2.0,Phases=2,Linecode=BT307_BT307_7_2_1,Length=0.000501000,Units=km
new line.1162784 bus1=BBT1331638.1.2.0,bus2=BBT1331645.1.2.0,Phases=2,Linecode=BT307_BT307_7_2_1,Length=0.000501000,Units=km
new line.1162791 bus1=BBT1331652.1.2.0,bus2=BBT1331659.1.2.0,Phases=2,Linecode=BT308_BT308_7_2_1,Length=0.000501000,Units=km
new line.1162798 bus1=BBT1331659.1.2.0,bus2=BBT3641890.1.2.0,Phases=2,Linecode=BT206_BT206_7_2_1,Length=0.076179000,Units=km
new line.1162805 bus1=BBT1331659.1.2.0,bus2=BBT3641897.1.2.0,Phases=2,Linecode=BT808_BT808_4_2_3,Length=0.049055000,Units=km
new line.1162812 bus1=BBT1331659.1.2.0,bus2=BBT3641904.1.2.0,Phases=2,Linecode=BT206_BT206_7_2_1,Length=0.054724000,Units=km
new line.1162819 bus1=BBT1331666.1.2.0,bus2=BBT1331673.1.2.0,Phases=2,Linecode=BT304_BT304_7_2_1,Length=0.000501000,Units=km
new line.1162840 bus1=BBT1331708.1.2.0,bus2=BBT1331715.1.2.0,Phases=2,Linecode=BT307_BT307_7_2_1,Length=0.000501000,Units=km
new line.1162847 bus1=BBT1331722.1.2.0,bus2=BBT1331729.1.2.0,Phases=2,Linecode=BT307_BT307_7_2_1,Length=0.000501000,Units=km
new line.1162854 bus1=BBT1331736.1.2.0,bus2=BBT1331743.1.2.0,Phases=2,Linecode=BT518_BT518_7_2_1,Length=0.000501000,Units=km
new line.1162861 bus1=BBT1331743.1.2.0,bus2=BBT3634365.1.2.0,Phases=2,Linecode=BT814_BT814_4_2_3,Length=0.030423000,Units=km
new line.1162868 bus1=BBT1331750.1.2.0,bus2=BBT1331757.1.2.0,Phases=2,Linecode=BT307_BT307_7_2_1,Length=0.000501000,Units=km
new line.1162875 bus1=BBT1331764.1.2.0,bus2=BBT1331771.1.2.0,Phases=2,Linecode=BT304_BT304_7_2_1,Length=0.000501000,Units=km
new line.1162882 bus1=BBT1331778.1.2.0,bus2=BBT1331785.1.2.0,Phases=2,Linecode=BT307_BT307_7_2_1,Length=0.000501000,Units=km
new line.1162889 bus1=BBT1331792.1.2.0,bus2=BBT1331799.1.2.0,Phases=2,Linecode=BT308_BT308_7_2_1,Length=0.000501000,Units=km
new line.1162896 bus1=BBT1331799.1.2.0,bus2=BBT3642254.1.2.0,Phases=2,Linecode=BT206_BT206_7_2_1,Length=0.070730000,Units=km
new line.1162903 bus1=BBT1331806.1.2.0,bus2=BBT1331813.1.2.0,Phases=2,Linecode=BT304_BT304_7_2_1,Length=0.000501000,Units=km
new line.1162917 bus1=BBT1331834.1.2.0,bus2=BBT1331841.1.2.0,Phases=2,Linecode=BT304_BT304_7_2_1,Length=0.000501000,Units=km
new line.1162924 bus1=BBT1331848.1.2.0,bus2=BBT1331855.1.2.0,Phases=2,Linecode=BT518_BT518_7_2_1,Length=0.000501000,Units=km
new line.1162931 bus1=BBT1331855.1.2.0,bus2=BBT3855187.1.2.0,Phases=2,Linecode=BT106_BT106_7_2_1,Length=0.036066000,Units=km
new line.1162952 bus1=BBT1331890.1.2.0,bus2=BBT1331897.1.2.0,Phases=2,Linecode=BT518_BT518_7_2_1,Length=0.000501000,Units=km
new line.1162966 bus1=BBT1331918.1.2.0,bus2=BBT1331925.1.2.0,Phases=2,Linecode=BT518_BT518_7_2_1,Length=0.000501000,Units=km
new line.1162973 bus1=BBT1331925.1.2.0,bus2=BBT3528504.1.2.0,Phases=2,Linecode=BT814_BT814_4_2_3,Length=0.040124000,Units=km
new line.1162980 bus1=BBT1331932.1.2.0,bus2=BBT1331939.1.2.0,Phases=2,Linecode=BT307_BT307_7_2_1,Length=0.000501000,Units=km
new line.1162987 bus1=BBT1331946.1.2.0,bus2=BBT1331953.1.2.0,Phases=2,Linecode=BT307_BT307_7_2_1,Length=0.000501000,Units=km
new line.1163050 bus1=BBT1332016.1.2.0,bus2=BBT1332023.1.2.0,Phases=2,Linecode=BT308_BT308_7_2_1,Length=0.000501000,Units=km
new line.1163057 bus1=BBT1332023.1.2.0,bus2=BBT3640910.1.2.0,Phases=2,Linecode=BT107_BT107_7_2_1,Length=0.079426000,Units=km
new line.1163078 bus1=BBT1332058.1.2.0,bus2=BBT1332065.1.2.0,Phases=2,Linecode=BT513_BT513_7_2_1,Length=0.000501000,Units=km
new line.1163085 bus1=BBT1332065.1.2.0,bus2=BBT2629907.1.2.0,Phases=2,Linecode=BT808_BT808_4_2_3,Length=0.045719000,Units=km
new line.1163092 bus1=BBT1332065.1.2.0,bus2=BBT2629900.1.2.0,Phases=2,Linecode=BT808_BT808_4_2_3,Length=0.054052000,Units=km
new line.1163120 bus1=BBT1332100.1.2.0,bus2=BBT1332107.1.2.0,Phases=2,Linecode=BT307_BT307_7_2_1,Length=0.000501000,Units=km
new line.1163127 bus1=BBT1332114.1.2.0,bus2=BBT1332121.1.2.0,Phases=2,Linecode=BT304_BT304_7_2_1,Length=0.000501000,Units=km
new line.1163162 bus1=BBT1332156.1.2.0,bus2=BBT1332163.1.2.0,Phases=2,Linecode=BT307_BT307_7_2_1,Length=0.000501000,Units=km
new line.1163169 bus1=BBT1332170.1.2.0,bus2=BBT1332177.1.2.0,Phases=2,Linecode=BT307_BT307_7_2_1,Length=0.000501000,Units=km
new line.1163183 bus1=BBT1332184.1.2.3.0,bus2=BBT1332191.1.2.3.0,Phases=3,Linecode=BT308_BT308_7_3_1,Length=0.000501000,Units=km
new line.1163197 bus1=BBT1332212.1.2.3.0,bus2=BBT1332219.1.2.3.0,Phases=3,Linecode=BT307_BT307_7_3_1,Length=0.000501000,Units=km
new line.1160390 bus1=BBT1328306.1.2.0,bus2=BBT1328313.1.2.0,Phases=2,Linecode=BT307_BT307_7_2_1,Length=0.000501000,Units=km
new line.1160397 bus1=BBT1328320.1.2.0,bus2=BBT1328327.1.2.0,Phases=2,Linecode=BT518_BT518_7_2_1,Length=0.000501000,Units=km
new line.1160404 bus1=BBT1328327.1.2.0,bus2=BBT3900862.1.2.0,Phases=2,Linecode=BT801_BT801_4_2_3,Length=0.039062000,Units=km
new line.1160411 bus1=BBT1328334.1.2.0,bus2=BBT1328341.1.2.0,Phases=2,Linecode=BT308_BT308_7_2_1,Length=0.000501000,Units=km
new line.1160418 bus1=BBT1328348.1.2.0,bus2=BBT1328355.1.2.0,Phases=2,Linecode=BT304_BT304_7_2_1,Length=0.000501000,Units=km
new line.1160425 bus1=BBT1328362.1.2.0,bus2=BBT1328369.1.2.0,Phases=2,Linecode=BT304_BT304_7_2_1,Length=0.000501000,Units=km
new line.1160432 bus1=BBT1328376.1.2.0,bus2=BBT1328383.1.2.0,Phases=2,Linecode=BT316_BT316_7_2_1,Length=0.000501000,Units=km
new line.1160439 bus1=BBT1328390.1.2.0,bus2=BBT1328397.1.2.0,Phases=2,Linecode=BT309_BT309_7_2_1,Length=0.000501000,Units=km
new line.1160453 bus1=BBT1328404.1.2.0,bus2=BBT1328411.1.2.0,Phases=2,Linecode=BT518_BT518_7_2_1,Length=0.000501000,Units=km
new line.1160460 bus1=BBT1328411.1.2.0,bus2=BBT4143167.1.2.0,Phases=2,Linecode=BT108_BT107_7_2_1,Length=0.061628000,Units=km
new line.1160467 bus1=BBT1328411.1.2.0,bus2=BBT4143174.1.2.0,Phases=2,Linecode=BT108_BT107_7_2_1,Length=0.065638000,Units=km
new line.1160474 bus1=BBT1328418.1.2.0,bus2=BBT1328425.1.2.0,Phases=2,Linecode=BT518_BT518_7_2_1,Length=0.000501000,Units=km
new line.1160488 bus1=BBT1328425.1.2.0,bus2=BBT4143482.1.2.0,Phases=2,Linecode=BT108_BT107_7_2_1,Length=0.032812000,Units=km
new line.1160495 bus1=BBT1328425.1.2.0,bus2=BBT4143475.1.2.0,Phases=2,Linecode=BT108_BT107_7_2_1,Length=0.036369000,Units=km
new line.1160502 bus1=BBT1328432.1.2.0,bus2=BBT1328439.1.2.0,Phases=2,Linecode=BT307_BT307_7_2_1,Length=0.000501000,Units=km
new line.1160509 bus1=BBT1328446.1.2.0,bus2=BBT1328453.1.2.0,Phases=2,Linecode=BT307_BT307_7_2_1,Length=0.000501000,Units=km
new line.1160516 bus1=BBT1328460.1.2.0,bus2=BBT1328467.1.2.0,Phases=2,Linecode=BT307_BT307_7_2_1,Length=0.000501000,Units=km
new line.1160530 bus1=BBT1328474.1.2.0,bus2=BBT1328481.1.2.0,Phases=2,Linecode=BT518_BT518_7_2_1,Length=0.000501000,Units=km
new line.1160537 bus1=BBT1328481.1.2.0,bus2=BBT4143419.1.2.0,Phases=2,Linecode=BT107_BT106_7_2_1,Length=0.067701000,Units=km
new line.1160544 bus1=BBT1328481.1.2.0,bus2=BBT4143412.1.2.0,Phases=2,Linecode=BT107_BT106_7_2_1,Length=0.069740000,Units=km
new line.1160551 bus1=BBT1328488.1.2.0,bus2=BBT1328495.1.2.0,Phases=2,Linecode=BT307_BT307_7_2_1,Length=0.000501000,Units=km
new line.1160558 bus1=BBT1328502.1.2.0,bus2=BBT1328509.1.2.0,Phases=2,Linecode=BT518_BT518_7_2_1,Length=0.000501000,Units=km
new line.1160565 bus1=BBT1328509.1.2.0,bus2=BBT3890740.1.2.0,Phases=2,Linecode=BT103_BT103_7_2_1,Length=0.046338000,Units=km
new line.1160572 bus1=BBT1328516.1.2.0,bus2=BBT1328523.1.2.0,Phases=2,Linecode=BT307_BT307_7_2_1,Length=0.000501000,Units=km
new line.1160579 bus1=BBT1328530.1.2.3.0,bus2=BBT1328537.1.2.3.0,Phases=3,Linecode=BT308_BT308_7_3_1,Length=0.000501000,Units=km
new line.1160586 bus1=BBT1328544.1.2.0,bus2=BBT1328551.1.2.0,Phases=2,Linecode=BT307_BT307_7_2_1,Length=0.000501000,Units=km
new line.1160593 bus1=BBT1328558.1.2.3.0,bus2=BBT1328565.1.2.3.0,Phases=3,Linecode=BT307_BT307_7_3_1,Length=0.000501000,Units=km
new line.1160600 bus1=BBT1328572.1.2.0,bus2=BBT1328579.1.2.0,Phases=2,Linecode=BT307_BT307_7_2_1,Length=0.000501000,Units=km
new line.1160607 bus1=BBT1328586.1.2.0,bus2=BBT1328593.1.2.0,Phases=2,Linecode=BT307_BT307_7_2_1,Length=0.000501000,Units=km
new line.1160614 bus1=BBT1328600.1.2.0,bus2=BBT1328607.1.2.0,Phases=2,Linecode=BT307_BT307_7_2_1,Length=0.000501000,Units=km
new line.1160621 bus1=BBT1328614.1.2.0,bus2=BBT1328621.1.2.0,Phases=2,Linecode=BT304_BT304_7_2_1,Length=0.000501000,Units=km
new line.1160628 bus1=BBT1328628.1.2.0,bus2=BBT1328635.1.2.0,Phases=2,Linecode=BT304_BT304_7_2_1,Length=0.000501000,Units=km
new line.1160635 bus1=BBT1328642.1.2.0,bus2=BBT1328649.1.2.0,Phases=2,Linecode=BT304_BT304_7_2_1,Length=0.000501000,Units=km
new line.1160642 bus1=BBT1328656.1.2.0,bus2=BBT1328663.1.2.0,Phases=2,Linecode=BT307_BT307_7_2_1,Length=0.000501000,Units=km
new line.1160649 bus1=BBT1328670.1.2.0,bus2=BBT1328677.1.2.0,Phases=2,Linecode=BT316_BT316_7_2_1,Length=0.000501000,Units=km
new line.1160656 bus1=BBT1328684.1.2.0,bus2=BBT1328691.1.2.0,Phases=2,Linecode=BT307_BT307_7_2_1,Length=0.000501000,Units=km
new line.1160670 bus1=BBT1328698.1.2.3.0,bus2=BBT1328705.1.2.3.0,Phases=3,Linecode=BT518_BT518_7_3_1,Length=0.000501000,Units=km
new line.1160677 bus1=BBT1328705.1.2.3.0,bus2=BBT2977506.1.2.3.0,Phases=3,Linecode=BT803_BT803_4_3_4,Length=0.040508000,Units=km
new line.1160684 bus1=BBT1328705.1.2.3.0,bus2=BBT2977499.1.2.3.0,Phases=3,Linecode=BT803_BT803_4_3_4,Length=0.041194000,Units=km
new line.1160691 bus1=BBT1328712.1.2.0,bus2=BBT1328719.1.2.0,Phases=2,Linecode=BT304_BT304_7_2_1,Length=0.000501000,Units=km
new line.1160698 bus1=BBT1328726.1.2.0,bus2=BBT1328733.1.2.0,Phases=2,Linecode=BT513_BT513_7_2_1,Length=0.000501000,Units=km
new line.1160705 bus1=BBT1328733.1.2.0,bus2=BBT2835840.1.2.0,Phases=2,Linecode=BT106_BT106_7_2_1,Length=0.052216000,Units=km
new line.1160712 bus1=BBT1328733.1.2.0,bus2=BBT3026275.1.2.0,Phases=2,Linecode=BT107_BT106_7_2_1,Length=0.030422000,Units=km
new line.1160719 bus1=BBT1328733.1.0,bus2=BBT3026282.1.0,Phases=1,Linecode=BT108_BT107_7_1_1,Length=0.099067000,Units=km
new line.1160726 bus1=BBT1328740.1.2.0,bus2=BBT1328747.1.2.0,Phases=2,Linecode=BT307_BT307_7_2_1,Length=0.000501000,Units=km
new line.1160733 bus1=BBT1328754.1.2.0,bus2=BBT1328761.1.2.0,Phases=2,Linecode=BT307_BT307_7_2_1,Length=0.000501000,Units=km
new line.1160747 bus1=BBT1328768.1.2.0,bus2=BBT1328775.1.2.0,Phases=2,Linecode=BT304_BT304_7_2_1,Length=0.000501000,Units=km
new line.1160754 bus1=BBT1328782.1.2.0,bus2=BBT1328789.1.2.0,Phases=2,Linecode=BT307_BT307_7_2_1,Length=0.000501000,Units=km
new line.1160761 bus1=BBT1328796.1.2.0,bus2=BBT1328803.1.2.0,Phases=2,Linecode=BT304_BT304_7_2_1,Length=0.000501000,Units=km
new line.1160768 bus1=BBT1328810.1.2.0,bus2=BBT1328817.1.2.0,Phases=2,Linecode=BT518_BT518_7_2_1,Length=0.000501000,Units=km
new line.1160775 bus1=BBT1328817.1.2.0,bus2=BBT3239019.1.2.0,Phases=2,Linecode=BT808_BT808_4_2_3,Length=0.043186000,Units=km
new line.1160782 bus1=BBT1328817.1.2.0,bus2=BBT3890873.1.2.0,Phases=2,Linecode=BT106_BT106_7_2_1,Length=0.065783000,Units=km
new line.1160789 bus1=BBT1328824.1.2.0,bus2=BBT1328831.1.2.0,Phases=2,Linecode=BT518_BT518_7_2_1,Length=0.000501000,Units=km
new line.1160796 bus1=BBT1328838.1.2.0,bus2=BBT1328845.1.2.0,Phases=2,Linecode=BT317_BT317_7_2_1,Length=0.000501000,Units=km
new line.1160803 bus1=BBT1328852.1.2.0,bus2=BBT1328859.1.2.0,Phases=2,Linecode=BT307_BT307_7_2_1,Length=0.000501000,Units=km
new line.1160817 bus1=BBT1328866.1.2.0,bus2=BBT1328873.1.2.0,Phases=2,Linecode=BT304_BT304_7_2_1,Length=0.000501000,Units=km
new line.1160824 bus1=BBT1328880.1.2.0,bus2=BBT1328887.1.2.0,Phases=2,Linecode=BT307_BT307_7_2_1,Length=0.000501000,Units=km
new line.1160831 bus1=BBT1328894.1.2.0,bus2=BBT1328901.1.2.0,Phases=2,Linecode=BT307_BT307_7_2_1,Length=0.000501000,Units=km
new line.1160838 bus1=BBT1328908.1.2.0,bus2=BBT1328915.1.2.0,Phases=2,Linecode=BT304_BT304_7_2_1,Length=0.000501000,Units=km
new line.1165178 bus1=BBT1335187.1.2.3.0,bus2=BBT1335173.1.2.3.0,Phases=3,Linecode=BT803_BT803_4_3_4,Length=0.021961000,Units=km
new line.1165185 bus1=BBT1335187.1.2.3.0,bus2=BBT1335180.1.2.3.0,Phases=3,Linecode=BT803_BT803_4_3_4,Length=0.005387000,Units=km
new line.1165192 bus1=BBT1335194.1.2.3.0,bus2=BBT1335187.1.2.3.0,Phases=3,Linecode=BT803_BT803_4_3_4,Length=0.022479000,Units=km
new line.1165199 bus1=BBT1335159.1.2.3.0,bus2=BBT1335194.1.2.3.0,Phases=3,Linecode=BT518_BT518_7_3_1,Length=0.000501000,Units=km
new line.1165206 bus1=BBT1335194.1.2.3.0,bus2=BBT1335215.1.2.3.0,Phases=3,Linecode=BT803_BT803_4_3_4,Length=0.021640000,Units=km
new line.1165213 bus1=BBT1335201.1.2.3.0,bus2=BBT1335222.1.2.3.0,Phases=3,Linecode=BT803_BT803_4_3_4,Length=0.035815000,Units=km
new line.1165220 bus1=BBT1335208.1.2.3.0,bus2=BBT1335236.1.2.3.0,Phases=3,Linecode=BT803_BT803_4_3_4,Length=0.045817000,Units=km
new line.1165227 bus1=BBT1335215.1.2.3.0,bus2=BBT1335208.1.2.3.0,Phases=3,Linecode=BT803_BT803_4_3_4,Length=0.006002000,Units=km
new line.1165234 bus1=BBT1335215.1.2.3.0,bus2=BBT1335243.1.2.3.0,Phases=3,Linecode=BT803_BT803_4_3_4,Length=0.028310000,Units=km
new line.1165241 bus1=BBT1335222.1.2.3.0,bus2=BBT1335250.1.2.3.0,Phases=3,Linecode=BT803_BT803_4_3_4,Length=0.026409000,Units=km
new line.1165248 bus1=BBT1335236.1.2.3.0,bus2=BBT1335285.1.2.3.0,Phases=3,Linecode=BT803_BT803_4_3_4,Length=0.033025000,Units=km
new line.1165255 bus1=BBT1335243.1.2.3.0,bus2=BBT1335264.1.2.3.0,Phases=3,Linecode=BT803_BT803_4_3_4,Length=0.005387000,Units=km
new line.1165262 bus1=BBT1335243.1.2.3.0,bus2=BBT1335292.1.2.3.0,Phases=3,Linecode=BT803_BT803_4_3_4,Length=0.029163000,Units=km
new line.1165269 bus1=BBT1335250.1.2.3.0,bus2=BBT1335257.1.2.3.0,Phases=3,Linecode=BT803_BT803_4_3_4,Length=0.005002000,Units=km
new line.1165276 bus1=BBT1335257.1.2.3.0,bus2=BBT1335229.1.2.3.0,Phases=3,Linecode=BT803_BT803_4_3_4,Length=0.020622000,Units=km
new line.1165283 bus1=BBT1335257.1.2.3.0,bus2=BBT2774884.1.2.3.0,Phases=3,Linecode=BT803_BT803_4_3_4,Length=0.017810000,Units=km
new line.1165290 bus1=BBT1335257.1.2.3.0,bus2=BBT1335278.1.2.3.0,Phases=3,Linecode=BT803_BT803_4_3_4,Length=0.029420000,Units=km
new line.1165297 bus1=BBT1335264.1.2.3.0,bus2=BBT1335299.1.2.3.0,Phases=3,Linecode=BT803_BT803_4_3_4,Length=0.042214000,Units=km
new line.1165304 bus1=BBT1335278.1.2.3.0,bus2=BBT1335313.1.2.3.0,Phases=3,Linecode=BT803_BT803_4_3_4,Length=0.033025000,Units=km
new line.1165311 bus1=BBT1335285.1.2.3.0,bus2=BBT1335306.1.2.3.0,Phases=3,Linecode=BT803_BT803_4_3_4,Length=0.023438000,Units=km
new line.1165318 bus1=BBT1335292.1.2.3.0,bus2=BBT1335320.1.2.3.0,Phases=3,Linecode=BT803_BT803_4_3_4,Length=0.029690000,Units=km
new line.1165325 bus1=BBT1335299.1.2.3.0,bus2=BBT1335327.1.2.3.0,Phases=3,Linecode=BT803_BT803_4_3_4,Length=0.038612000,Units=km
new line.1165332 bus1=BBT1335306.1.2.3.0,bus2=BBT1335271.1.2.3.0,Phases=3,Linecode=BT803_BT803_4_3_4,Length=0.027667000,Units=km
new line.1165339 bus1=BBT1335551.1.2.3.0,bus2=BBT1335558.1.2.3.0,Phases=3,Linecode=BT107_BT107_7_3_1,Length=0.043842000,Units=km
new line.1165346 bus1=BBT1335313.1.2.3.0,bus2=BBT1335334.1.2.3.0,Phases=3,Linecode=BT803_BT803_4_3_4,Length=0.022210000,Units=km
new line.1165353 bus1=BBT1335327.1.2.3.0,bus2=BBT1335341.1.2.3.0,Phases=3,Linecode=BT803_BT803_4_3_4,Length=0.017810000,Units=km
new line.1165360 bus1=BBT1335334.1.2.3.0,bus2=BBT2973691.1.2.3.0,Phases=3,Linecode=BT810_BT810_4_3_4,Length=0.028169000,Units=km
new line.1165367 bus1=BBT1335565.1.2.3.0,bus2=BBT1335551.1.2.3.0,Phases=3,Linecode=BT107_BT107_7_3_1,Length=0.034838000,Units=km
new line.1165444 bus1=BBT1335460.1.2.3.0,bus2=BBT1335467.1.2.3.0,Phases=3,Linecode=BT308_BT308_7_3_1,Length=0.000501000,Units=km
new line.1165486 bus1=BBT1335530.1.2.0,bus2=BBT1335537.1.2.0,Phases=2,Linecode=BT307_BT307_7_2_1,Length=0.000501000,Units=km
new line.1165493 bus1=BBT1335572.1.2.3.0,bus2=BBT2774723.1.2.3.0,Phases=3,Linecode=BT107_BT107_7_3_1,Length=0.030009000,Units=km
new line.1165500 bus1=BBT1335579.1.2.3.0,bus2=BBT1335565.1.2.3.0,Phases=3,Linecode=BT108_BT108_7_3_1,Length=0.043613000,Units=km
new line.1165507 bus1=BBT1335586.1.2.3.0,bus2=BBT1335572.1.2.3.0,Phases=3,Linecode=BT107_BT107_7_3_1,Length=0.037813000,Units=km
new line.1165514 bus1=BBT1335593.1.2.3.0,bus2=BBT1335579.1.2.3.0,Phases=3,Linecode=BT108_BT108_7_3_1,Length=0.037213000,Units=km
new line.1165521 bus1=BBT1335600.1.2.3.0,bus2=BBT1335586.1.2.3.0,Phases=3,Linecode=BT107_BT107_7_3_1,Length=0.029215000,Units=km
new line.1165528 bus1=BBT1335600.1.2.3.0,bus2=BBT2973698.1.2.3.0,Phases=3,Linecode=BT810_BT810_4_3_4,Length=0.043693000,Units=km
new line.1165535 bus1=BBT1335607.1.2.3.0,bus2=BBT1335593.1.2.3.0,Phases=3,Linecode=BT108_BT108_7_3_1,Length=0.029215000,Units=km
new line.1165542 bus1=BBT1335614.1.2.3.0,bus2=BBT1335600.1.2.3.0,Phases=3,Linecode=BT107_BT107_7_3_1,Length=0.031632000,Units=km
new line.1165549 bus1=BBT1335621.1.2.3.0,bus2=BBT1335607.1.2.3.0,Phases=3,Linecode=BT108_BT108_7_3_1,Length=0.037813000,Units=km
new line.1165556 bus1=BBT1335544.1.2.3.0,bus2=BBT1335621.1.2.3.0,Phases=3,Linecode=BT513_BT513_7_3_1,Length=0.000501000,Units=km
new line.1165563 bus1=BBT1335621.1.2.3.0,bus2=BBT1335628.1.2.3.0,Phases=3,Linecode=BT107_BT107_7_3_1,Length=0.035238000,Units=km
new line.1165570 bus1=BBT1335621.1.2.3.0,bus2=BBT1335635.1.2.3.0,Phases=3,Linecode=BT108_BT108_7_3_1,Length=0.037213000,Units=km
new line.1165577 bus1=BBT1335635.1.2.3.0,bus2=BBT1335642.1.2.3.0,Phases=3,Linecode=BT108_BT108_7_3_1,Length=0.023266000,Units=km
new line.1165584 bus1=BBT1335635.1.2.3.0,bus2=BBT3008838.1.2.3.0,Phases=3,Linecode=BT108_BT108_7_3_1,Length=0.005833000,Units=km
new line.1165591 bus1=BBT1335642.1.2.3.0,bus2=BBT1335656.1.2.3.0,Phases=3,Linecode=BT108_BT108_7_3_1,Length=0.038090000,Units=km
new line.1165598 bus1=BBT1335642.1.2.3.0,bus2=BBT3008859.1.2.3.0,Phases=3,Linecode=BT107_BT107_7_3_1,Length=0.006085000,Units=km
new line.1165605 bus1=BBT1335649.1.2.0,bus2=BBT1335677.1.2.0,Phases=2,Linecode=BT107_BT107_7_2_1,Length=0.031410000,Units=km
new line.1165612 bus1=BBT1335656.1.2.3.0,bus2=BBT1335663.1.2.3.0,Phases=3,Linecode=BT108_BT108_7_3_1,Length=0.029420000,Units=km
new line.1165619 bus1=BBT1335656.1.2.3.0,bus2=BBT2973705.1.2.3.0,Phases=3,Linecode=BT810_BT810_4_3_4,Length=0.023777000,Units=km
new line.1165626 bus1=BBT1335663.1.2.3.0,bus2=BBT1335670.1.2.3.0,Phases=3,Linecode=BT108_BT108_7_3_1,Length=0.021407000,Units=km
new line.1165647 bus1=BBT1335712.1.2.0,bus2=BBT1335719.1.2.0,Phases=2,Linecode=BT518_BT518_7_2_1,Length=0.000501000,Units=km
new line.1165654 bus1=BBT1335726.1.2.3.0,bus2=BBT1335733.1.2.3.0,Phases=3,Linecode=BT514_BT514_7_3_1,Length=0.000501000,Units=km
new line.1165668 bus1=BBT1335887.1.2.0,bus2=BBT1335873.1.2.0,Phases=2,Linecode=BT107_BT107_7_2_1,Length=0.025620000,Units=km
new line.1165675 bus1=BBT1335740.1.2.3.0,bus2=BBT1335747.1.2.3.0,Phases=3,Linecode=BT513_BT513_7_3_1,Length=0.000501000,Units=km
new line.1165682 bus1=BBT1335747.1.2.3.0,bus2=BBT1335894.1.2.3.0,Phases=3,Linecode=BT108_BT107_7_3_1,Length=0.031025000,Units=km
new line.1165689 bus1=BBT1335747.1.2.3.0,bus2=BBT1335929.1.2.3.0,Phases=3,Linecode=BT108_BT107_7_3_1,Length=0.031025000,Units=km
new line.1165745 bus1=BBT1335845.1.2.0,bus2=BBT1335831.1.2.0,Phases=2,Linecode=BT107_BT107_7_2_1,Length=0.032812000,Units=km
new line.1165759 bus1=BBT1335859.1.2.0,bus2=BBT2866731.1.2.0,Phases=2,Linecode=BT107_BT107_7_2_1,Length=0.026027000,Units=km
new line.10055282 bus1=BBT149546583.1.2.3.0,bus2=BBT149546584.1.2.3.0,Phases=3,Linecode=BT513_BT513_7_3_1,Length=0.000501000,Units=km