new line.RML10034710 bus1=BBT1333115.1.2.0,bus2=RML1060034710.1.2.0,Phases=2,Linecode=CABBTG05_4_2,Length=0.017000000,Units=km
new line.RML10043500 bus1=BBT147388574.1.2.0,bus2=RML1060043500.1.2.0,Phases=2,Linecode=CABBTG05_4_2,Length=0.017000000,Units=km
new line.RML10043880 bus1=BBT1329349.1.2.0,bus2=RML1060043880.1.2.0,Phases=2,Linecode=CABBTG05_4_2,Length=0.017000000,Units=km
new line.RML10056356 bus1=BBT3576573.2.0,bus2=RML1060056356.2.0,Phases=1,Linecode=CABBTG02_4_1,Length=0.012000000,Units=km
new line.RML10058565 bus1=BBT148684769.1.2.3.0,bus2=RML1060058565.1.2.3.0,Phases=3,Linecode=CABBTG06_4_3,Length=0.017000000,Units=km
new line.RML10060881 bus1=BBT144927507.1.2.0,bus2=RML1060060881.1.2.0,Phases=2,Linecode=CABBTG05_4_2,Length=0.017000000,Units=km
new line.RML10072264 bus1=BBT1341739.1.0,bus2=RML1060072264.1.0,Phases=1,Linecode=CABBTG02_4_1,Length=0.017000000,Units=km
new line.RML10072270 bus1=BBT1341781.1.2.0,bus2=RML1060072270.1.2.0,Phases=2,Linecode=CABBTG05_4_2,Length=0.017000000,Units=km
new line.RML10072274 bus1=BBT1348417.1.2.0,bus2=RML1060072274.1.2.0,Phases=2,Linecode=CABBTG05_4_2,Length=0.017000000,Units=km
new line.RML10084685 bus1=BBT1328467.1.0,bus2=RML1060084685.1.0,Phases=1,Linecode=CABBTG02_4_1,Length=0.017000000,Units=km
new line.RML10085716 bus1=BBT3153983.1.2.0,bus2=RML1060085716.1.2.0,Phases=2,Linecode=CABBTG05_4_2,Length=0.017000000,Units=km
new line.RML10085791 bus1=BBT4651409.1.2.0,bus2=RML1060085791.1.2.0,Phases=2,Linecode=CABBTG05_4_2,Length=0.017000000,Units=km
new line.RML10086951 bus1=BBT75058064.1.0,bus2=RML1060086951.1.0,Phases=1,Linecode=CABBTG02_4_1,Length=0.017000000,Units=km
new line.RML10086983 bus1=BBT107847576.1.2.0,bus2=RML1060086983.1.2.0,Phases=2,Linecode=CABBTG05_4_2,Length=0.017000000,Units=km
new line.RML10088518 bus1=BBT1329139.1.2.0,bus2=RML1060088518.1.2.0,Phases=2,Linecode=CABBTG05_4_2,Length=0.017000000,Units=km
new line.RML10088520 bus1=BBT1329545.1.0,bus2=RML1060088520.1.0,Phases=1,Linecode=CABBTG02_4_1,Length=0.017000000,Units=km
new line.RML10089216 bus1=BBT3792397.1.0,bus2=RML1060089216.1.0,Phases=1,Linecode=CABBTG02_4_1,Length=0.017000000,Units=km
new line.RML10089318 bus1=BBT3642261.1.2.0,bus2=RML1060089318.1.2.0,Phases=2,Linecode=CABBTG05_4_2,Length=0.017000000,Units=km
new line.RML10089320 bus1=BBT7660681.1.2.0,bus2=RML1060089320.1.2.0,Phases=2,Linecode=CABBTG05_4_2,Length=0.017000000,Units=km
new line.RML10089322 bus1=BBT7660681.1.2.0,bus2=RML1060089322.1.2.0,Phases=2,Linecode=CABBTG05_4_2,Length=0.017000000,Units=km
new line.RML10091180 bus1=BBT1338057.1.2.3.0,bus2=RML1060091180.1.2.3.0,Phases=3,Linecode=CABBTG06_4_3,Length=0.017000000,Units=km
new line.RML10091828 bus1=BBT1334025.1.2.0,bus2=RML1060091828.1.2.0,Phases=2,Linecode=CABBTG05_4_2,Length=0.017000000,Units=km
new line.RML10091866 bus1=BBT1330665.1.2.0,bus2=RML1060091866.1.2.0,Phases=2,Linecode=CABBTG05_4_2,Length=0.017000000,Units=km
new line.RML10091868 bus1=BBT1327837.1.0,bus2=RML1060091868.1.0,Phases=1,Linecode=CABBTG02_4_1,Length=0.017000000,Units=km
new line.RML10091914 bus1=BBT138017051.1.0,bus2=RML1060091914.1.0,Phases=1,Linecode=CABBTG02_4_1,Length=0.017000000,Units=km
new line.RML10091918 bus1=BBT138017051.1.0,bus2=RML1060091918.1.0,Phases=1,Linecode=CABBTG02_4_1,Length=0.017000000,Units=km
new line.RML10091933 bus1=BBT145262429.1.2.0,bus2=RML1060091933.1.2.0,Phases=2,Linecode=CABBTG05_4_2,Length=0.017000000,Units=km
new line.RML10091966 bus1=BBT138017051.2.0,bus2=RML1060091966.2.0,Phases=1,Linecode=CABBTG02_4_1,Length=0.017000000,Units=km
new line.RML10091969 bus1=BBT138017051.2.0,bus2=RML1060091969.2.0,Phases=1,Linecode=CABBTG02_4_1,Length=0.017000000,Units=km
new line.RML10091996 bus1=BBT2858975.1.0,bus2=RML1060091996.1.0,Phases=1,Linecode=CABBTG02_4_1,Length=0.017000000,Units=km
new line.RML10092018 bus1=BBT1787359.1.2.0,bus2=RML1060092018.1.2.0,Phases=2,Linecode=CABBTG05_4_2,Length=0.017000000,Units=km
new line.RML10092086 bus1=BBT2850666.1.2.0,bus2=RML1060092086.1.2.0,Phases=2,Linecode=CABBTG05_4_2,Length=0.017000000,Units=km
new line.RML10093246 bus1=BBT2855804.1.2.0,bus2=RML1060093246.1.2.0,Phases=2,Linecode=CABBTG05_4_2,Length=0.017000000,Units=km
new line.RML10093251 bus1=BBT1330105.1.2.0,bus2=RML1060093251.1.2.0,Phases=2,Linecode=CABBTG05_4_2,Length=0.017000000,Units=km
new line.RML10093279 bus1=BBT2855804.1.2.0,bus2=RML1060093279.1.2.0,Phases=2,Linecode=CABBTG05_4_2,Length=0.017000000,Units=km
new line.RML10093581 bus1=BBT97136407.1.2.0,bus2=RML1060093581.1.2.0,Phases=2,Linecode=CABBTG05_4_2,Length=0.017000000,Units=km
new line.RML10093596 bus1=BBT3187156.1.2.0,bus2=RML1060093596.1.2.0,Phases=2,Linecode=CABBTG05_4_2,Length=0.017000000,Units=km
new line.RML10093631 bus1=BBT3838534.1.2.0,bus2=RML1060093631.1.2.0,Phases=2,Linecode=CABBTG05_4_2,Length=0.017000000,Units=km
new line.RML10093652 bus1=BBT3792397.1.0,bus2=RML1060093652.1.0,Phases=1,Linecode=CABBTG02_4_1,Length=0.017000000,Units=km
new line.RML10093659 bus1=BBT1787359.1.2.0,bus2=RML1060093659.1.2.0,Phases=2,Linecode=CABBTG05_4_2,Length=0.017000000,Units=km
new line.RML10093713 bus1=BBT144803943.1.0,bus2=RML1060093713.1.0,Phases=1,Linecode=CABBTG02_4_1,Length=0.017000000,Units=km
new line.RML10093720 bus1=BBT2859227.1.2.0,bus2=RML1060093720.1.2.0,Phases=2,Linecode=CABBTG05_4_2,Length=0.017000000,Units=km
new line.RML10097104 bus1=BBT1787387.1.2.0,bus2=RML1060097104.1.2.0,Phases=2,Linecode=CABBTG05_4_2,Length=0.017000000,Units=km
new line.RML10097123 bus1=BBT138017051.1.0,bus2=RML1060097123.1.0,Phases=1,Linecode=CABBTG02_4_1,Length=0.017000000,Units=km
new line.RML10097127 bus1=BBT138017051.1.0,bus2=RML1060097127.1.0,Phases=1,Linecode=CABBTG02_4_1,Length=0.017000000,Units=km
new line.RML10097159 bus1=BBT2976358.1.2.0,bus2=RML1060097159.1.2.0,Phases=2,Linecode=CABBTG05_4_2,Length=0.017000000,Units=km
new line.RML10097175 bus1=BBT138017051.2.0,bus2=RML1060097175.2.0,Phases=1,Linecode=CABBTG02_4_1,Length=0.017000000,Units=km
new line.RML10097199 bus1=BBT2629900.1.0,bus2=RML1060097199.1.0,Phases=1,Linecode=CABBTG02_4_1,Length=0.017000000,Units=km
new line.RML10097204 bus1=BBT3792397.1.0,bus2=RML1060097204.1.0,Phases=1,Linecode=CABBTG02_4_1,Length=0.017000000,Units=km
new line.RML10097223 bus1=BBT143502398.1.2.0,bus2=RML1060097223.1.2.0,Phases=2,Linecode=CABBTG05_4_2,Length=0.017000000,Units=km
new line.RML10097352 bus1=BBT1780233.1.2.3.0,bus2=RML1060097352.1.2.3.0,Phases=3,Linecode=CABBTG06_4_3,Length=0.017000000,Units=km
new line.RML10097477 bus1=BBT1335719.1.2.0,bus2=RML1060097477.1.2.0,Phases=2,Linecode=CABBTG05_4_2,Length=0.017000000,Units=km
new line.RML10099933 bus1=BBT1770566.1.0,bus2=RML1060099933.1.0,Phases=1,Linecode=CABBTG02_4_1,Length=0.017000000,Units=km
new line.RML10100499 bus1=BBT1341977.1.2.0,bus2=RML1060100499.1.2.0,Phases=2,Linecode=CABBTG05_4_2,Length=0.017000000,Units=km
new line.RML10100525 bus1=BBT1342257.1.2.3.0,bus2=RML1060100525.1.2.3.0,Phases=3,Linecode=CABBTG06_4_3,Length=0.017000000,Units=km
new line.RML10100534 bus1=BBT1342285.1.0,bus2=RML1060100534.1.0,Phases=1,Linecode=CABBTG02_4_1,Length=0.017000000,Units=km
new line.RML10100542 bus1=BBT1342131.1.2.0,bus2=RML1060100542.1.2.0,Phases=2,Linecode=CABBTG05_4_2,Length=0.017000000,Units=km
new line.RML10100545 bus1=BBT1339310.1.0,bus2=RML1060100545.1.0,Phases=1,Linecode=CABBTG02_4_1,Length=0.017000000,Units=km
new line.RML10100548 bus1=BBT1341844.1.2.0,bus2=RML1060100548.1.2.0,Phases=2,Linecode=CABBTG05_4_2,Length=0.017000000,Units=km
new line.RML10100551 bus1=BBT1337903.1.2.0,bus2=RML1060100551.1.2.0,Phases=2,Linecode=CABBTG05_4_2,Length=0.017000000,Units=km
new line.RML10100554 bus1=BBT1337161.1.0,bus2=RML1060100554.1.0,Phases=1,Linecode=CABBTG02_4_1,Length=0.017000000,Units=km
new line.RML10100556 bus1=BBT1336888.1.0,bus2=RML1060100556.1.0,Phases=1,Linecode=CABBTG02_4_1,Length=0.017000000,Units=km
new line.RML10100562 bus1=BBT2803486.1.2.0,bus2=RML1060100562.1.2.0,Phases=2,Linecode=CABBTG05_4_2,Length=0.017000000,Units=km
new line.RML10102492 bus1=BBT4212348.1.0,bus2=RML1060102492.1.0,Phases=1,Linecode=CABBTG02_4_1,Length=0.017000000,Units=km
new line.RML10104087 bus1=BBT144927507.1.2.0,bus2=RML1060104087.1.2.0,Phases=2,Linecode=CABBTG05_4_2,Length=0.017000000,Units=km
new line.RML10104101 bus1=BBT1333549.1.2.0,bus2=RML1060104101.1.2.0,Phases=2,Linecode=CABBTG05_4_2,Length=0.017000000,Units=km
new line.RML10104114 bus1=BBT1380435.1.2.3.0,bus2=RML1060104114.1.2.3.0,Phases=3,Linecode=CABBTG06_4_3,Length=0.017000000,Units=km
new line.RML10104119 bus1=BBT1725626.1.2.3.0,bus2=RML1060104119.1.2.3.0,Phases=3,Linecode=CABBTG06_4_3,Length=0.017000000,Units=km
new line.RML10104153 bus1=BBT2863161.1.2.0,bus2=RML1060104153.1.2.0,Phases=2,Linecode=CABBTG05_4_2,Length=0.017000000,Units=km
new line.RML10104282 bus1=BBT4744397.2.3.0,bus2=RML1060104282.2.3.0,Phases=2,Linecode=CABBTG05_4_2,Length=0.017000000,Units=km
new line.RML10105202 bus1=BBT2706298.1.2.0,bus2=RML1060105202.1.2.0,Phases=2,Linecode=CABBTG05_4_2,Length=0.017000000,Units=km
new line.RML10105212 bus1=BBT1340234.1.3.0,bus2=RML1060105212.1.3.0,Phases=2,Linecode=CABBTG05_4_2,Length=0.017000000,Units=km
new line.RML10105295 bus1=BBT1735755.1.2.0,bus2=RML1060105295.1.2.0,Phases=2,Linecode=CABBTG05_4_2,Length=0.017000000,Units=km
new line.RML10106794 bus1=BBT137130858.1.3.0,bus2=RML1060106794.1.3.0,Phases=2,Linecode=CABBTG05_4_2,Length=0.017000000,Units=km
new line.RML10107428 bus1=BBT2705661.1.2.0,bus2=RML1060107428.1.2.0,Phases=2,Linecode=CABBTG05_4_2,Length=0.017000000,Units=km
new line.RML10107436 bus1=BBT1343608.1.2.3.0,bus2=RML1060107436.1.2.3.0,Phases=3,Linecode=CABBTG06_4_3,Length=0.017000000,Units=km
new line.RML10107439 bus1=BBT2704492.1.2.0,bus2=RML1060107439.1.2.0,Phases=2,Linecode=CABBTG05_4_2,Length=0.017000000,Units=km
new line.RML10107450 bus1=BBT2704723.1.2.3.0,bus2=RML1060107450.1.2.3.0,Phases=3,Linecode=CABBTG06_4_3,Length=0.017000000,Units=km
new line.RML10107456 bus1=BBT2705857.1.2.0,bus2=RML1060107456.1.2.0,Phases=2,Linecode=CABBTG05_4_2,Length=0.017000000,Units=km
new line.RML10107472 bus1=BBT2706032.1.2.3.0,bus2=RML1060107472.1.2.3.0,Phases=3,Linecode=CABBTG06_4_3,Length=0.017000000,Units=km
new line.RML10107920 bus1=BBT4109385.1.2.0,bus2=RML1060107920.1.2.0,Phases=2,Linecode=CABBTG05_4_2,Length=0.017000000,Units=km
new line.RML10110542 bus1=BBT2851198.1.2.0,bus2=RML1060110542.1.2.0,Phases=2,Linecode=CABBTG05_4_2,Length=0.017000000,Units=km
new line.RML10110589 bus1=BBT1382983.1.3.0,bus2=RML1060110589.1.3.0,Phases=2,Linecode=CABBTG05_4_2,Length=0.017000000,Units=km
new line.RML10112129 bus1=BBT1376032.1.2.3.0,bus2=RML1060112129.1.2.3.0,Phases=3,Linecode=CABBTG06_4_3,Length=0.017000000,Units=km
new line.RML10112620 bus1=BBT1726396.1.2.0,bus2=RML1060112620.1.2.0,Phases=2,Linecode=CABBTG05_4_2,Length=0.017000000,Units=km
new line.RML10112633 bus1=BBT3066749.1.2.0,bus2=RML1060112633.1.2.0,Phases=2,Linecode=CABBTG05_4_2,Length=0.017000000,Units=km
new line.RML10113302 bus1=BBT1725941.1.2.0,bus2=RML1060113302.1.2.0,Phases=2,Linecode=CABBTG05_4_2,Length=0.017000000,Units=km
new line.RML10114242 bus1=BBT1725549.1.3.0,bus2=RML1060114242.1.3.0,Phases=2,Linecode=CABBTG05_4_2,Length=0.017000000,Units=km
new line.RML10114543 bus1=BBT1334767.1.2.0,bus2=RML1060114543.1.2.0,Phases=2,Linecode=CABBTG05_4_2,Length=0.017000000,Units=km
new line.RML10116233 bus1=BBT148843358.1.2.0,bus2=RML1060116233.1.2.0,Phases=2,Linecode=CABBTG05_4_2,Length=0.017000000,Units=km
new line.RML10120104 bus1=BBT4212537.1.2.0,bus2=RML1060120104.1.2.0,Phases=2,Linecode=CABBTG05_4_2,Length=0.017000000,Units=km
new line.RML10120383 bus1=BBT1787366.1.2.0,bus2=RML1060120383.1.2.0,Phases=2,Linecode=CABBTG05_4_2,Length=0.017000000,Units=km
new line.RML10131879 bus1=BBT1337189.1.2.0,bus2=RML1060131879.1.2.0,Phases=2,Linecode=CABBTG05_4_2,Length=0.017000000,Units=km
new line.RML10138689 bus1=BBT1336531.1.2.0,bus2=RML1060138689.1.2.0,Phases=2,Linecode=CABBTG05_4_2,Length=0.017000000,Units=km
new line.RML10142757 bus1=BBT3904334.1.2.0,bus2=RML1060142757.1.2.0,Phases=2,Linecode=CABBTG05_4_2,Length=0.017000000,Units=km
new line.RML10144584 bus1=BBT1330119.1.2.0,bus2=RML1060144584.1.2.0,Phases=2,Linecode=CABBTG05_4_2,Length=0.017000000,Units=km
new line.RML10150805 bus1=BBT4276804.1.2.0,bus2=RML1060150805.1.2.0,Phases=2,Linecode=CABBTG05_4_2,Length=0.017000000,Units=km
new line.RML10150806 bus1=BBT3904334.1.2.0,bus2=RML1060150806.1.2.0,Phases=2,Linecode=CABBTG05_4_2,Length=0.017000000,Units=km
new line.RML10150807 bus1=BBT3904334.1.2.0,bus2=RML1060150807.1.2.0,Phases=2,Linecode=CABBTG05_4_2,Length=0.017000000,Units=km
new line.RML10150808 bus1=BBT3904334.1.2.0,bus2=RML1060150808.1.2.0,Phases=2,Linecode=CABBTG05_4_2,Length=0.017000000,Units=km
new line.RML10150818 bus1=BBT2881312.1.2.0,bus2=RML1060150818.1.2.0,Phases=2,Linecode=CABBTG05_4_2,Length=0.017000000,Units=km
new line.RML10150820 bus1=BBT2881305.1.2.0,bus2=RML1060150820.1.2.0,Phases=2,Linecode=CABBTG05_4_2,Length=0.017000000,Units=km
new line.RML10154930 bus1=BBT1340969.1.0,bus2=RML1060154930.1.0,Phases=1,Linecode=CABBTG02_4_1,Length=0.017000000,Units=km
new line.RML10154947 bus1=BBT1340514.1.0,bus2=RML1060154947.1.0,Phases=1,Linecode=CABBTG02_4_1,Length=0.017000000,Units=km
new line.RML10154956 bus1=BBT1339877.1.0,bus2=RML1060154956.1.0,Phases=1,Linecode=CABBTG02_4_1,Length=0.017000000,Units=km
new line.RML10154964 bus1=BBT1340010.1.2.3.0,bus2=RML1060154964.1.2.3.0,Phases=3,Linecode=CABBTG06_4_3,Length=0.017000000,Units=km
new line.RML10154969 bus1=BBT1340745.1.0,bus2=RML1060154969.1.0,Phases=1,Linecode=CABBTG02_4_1,Length=0.017000000,Units=km
new line.RML10154974 bus1=BBT1336741.1.2.3.0,bus2=RML1060154974.1.2.3.0,Phases=3,Linecode=CABBTG06_4_3,Length=0.017000000,Units=km
new line.RML10154977 bus1=BBT1336762.2.0,bus2=RML1060154977.2.0,Phases=1,Linecode=CABBTG02_4_1,Length=0.017000000,Units=km
new line.RML10164626 bus1=BBT3212006.1.2.0,bus2=RML1060164626.1.2.0,Phases=2,Linecode=CABBTG05_4_2,Length=0.017000000,Units=km
new line.RML10164753 bus1=BBT3838534.1.0,bus2=RML1060164753.1.0,Phases=1,Linecode=CABBTG02_4_1,Length=0.017000000,Units=km
new line.RML10164988 bus1=BBT1339590.2.3.0,bus2=RML1060164988.2.3.0,Phases=2,Linecode=CABBTG05_4_2,Length=0.017000000,Units=km
new line.RML10165038 bus1=BBT1735209.1.2.0,bus2=RML1060165038.1.2.0,Phases=2,Linecode=CABBTG05_4_2,Length=0.017000000,Units=km
new line.RML10166776 bus1=BBT2705955.1.3.0,bus2=RML1060166776.1.3.0,Phases=2,Linecode=CABBTG04_4_2,Length=0.017000000,Units=km
new line.RML10166786 bus1=BBT2704730.1.3.0,bus2=RML1060166786.1.3.0,Phases=2,Linecode=CABBTG05_4_2,Length=0.017000000,Units=km
new line.RML10166793 bus1=BBT1347647.2.3.0,bus2=RML1060166793.2.3.0,Phases=2,Linecode=CABBTG05_4_2,Length=0.017000000,Units=km
new line.RML10166797 bus1=BBT1725416.1.2.0,bus2=RML1060166797.1.2.0,Phases=2,Linecode=CABBTG05_4_2,Length=0.017000000,Units=km
new line.RML10166807 bus1=BBT2705843.1.2.0,bus2=RML1060166807.1.2.0,Phases=2,Linecode=CABBTG04_4_2,Length=0.017000000,Units=km
new line.RML10166817 bus1=BBT2703988.1.2.0,bus2=RML1060166817.1.2.0,Phases=2,Linecode=CABBTG04_4_2,Length=0.017000000,Units=km
new line.RML10166825 bus1=BBT1726053.1.2.0,bus2=RML1060166825.1.2.0,Phases=2,Linecode=CABBTG04_4_2,Length=0.017000000,Units=km
new line.RML10166829 bus1=BBT1726060.1.2.0,bus2=RML1060166829.1.2.0,Phases=2,Linecode=CABBTG05_4_2,Length=0.017000000,Units=km
new line.RML10166833 bus1=BBT2704779.1.2.0,bus2=RML1060166833.1.2.0,Phases=2,Linecode=CABBTG04_4_2,Length=0.017000000,Units=km
new line.RML10166839 bus1=BBT2706018.1.3.0,bus2=RML1060166839.1.3.0,Phases=2,Linecode=CABBTG04_4_2,Length=0.017000000,Units=km
new line.RML10166849 bus1=BBT2704709.1.2.3.0,bus2=RML1060166849.1.2.3.0,Phases=3,Linecode=CABBTG06_4_3,Length=0.017000000,Units=km
new line.RML10166853 bus1=BBT2706228.1.3.0,bus2=RML1060166853.1.3.0,Phases=2,Linecode=CABBTG05_4_2,Length=0.017000000,Units=km
new line.RML10166856 bus1=BBT2705913.1.2.0,bus2=RML1060166856.1.2.0,Phases=2,Linecode=CABBTG04_4_2,Length=0.017000000,Units=km
new line.RML10168203 bus1=BBT1329132.1.2.0,bus2=RML1060168203.1.2.0,Phases=2,Linecode=CABBTG05_4_2,Length=0.017000000,Units=km
new line.RML10168205 bus1=BBT1329139.1.2.0,bus2=RML1060168205.1.2.0,Phases=2,Linecode=CABBTG05_4_2,Length=0.017000000,Units=km
new line.RML10168891 bus1=BBT4212621.1.0,bus2=RML1060168891.1.0,Phases=1,Linecode=CABBTG02_4_1,Length=0.017000000,Units=km
new line.RML10168898 bus1=BBT4212516.1.2.0,bus2=RML1060168898.1.2.0,Phases=2,Linecode=CABBTG04_4_2,Length=0.017000000,Units=km
new line.RML10168902 bus1=BBT2882012.1.2.0,bus2=RML1060168902.1.2.0,Phases=2,Linecode=CABBTG05_4_2,Length=0.017000000,Units=km
new line.RML10168905 bus1=BBT2881963.1.2.0,bus2=RML1060168905.1.2.0,Phases=2,Linecode=CABBTG05_4_2,Length=0.017000000,Units=km
new line.RML10168911 bus1=BBT5283166.1.2.0,bus2=RML1060168911.1.2.0,Phases=2,Linecode=CABBTG05_4_2,Length=0.017000000,Units=km
new line.RML10168917 bus1=BBT2881767.1.2.0,bus2=RML1060168917.1.2.0,Phases=2,Linecode=CABBTG05_4_2,Length=0.017000000,Units=km
new line.RML10168931 bus1=BBT5283208.1.2.0,bus2=RML1060168931.1.2.0,Phases=2,Linecode=CABBTG05_4_2,Length=0.017000000,Units=km
new line.RML10168937 bus1=BBT4212600.1.2.0,bus2=RML1060168937.1.2.0,Phases=2,Linecode=CABBTG05_4_2,Length=0.017000000,Units=km
new line.RML10168940 bus1=BBT2881144.2.3.0,bus2=RML1060168940.2.3.0,Phases=2,Linecode=CABBTG05_4_2,Length=0.017000000,Units=km
new line.RML10168942 bus1=BBT2881767.2.3.0,bus2=RML1060168942.2.3.0,Phases=2,Linecode=CABBTG05_4_2,Length=0.017000000,Units=km
new line.RML10168948 bus1=BBT2882061.1.2.0,bus2=RML1060168948.1.2.0,Phases=2,Linecode=CABBTG04_4_2,Length=0.017000000,Units=km
new line.RML10168950 bus1=BBT5283180.1.2.0,bus2=RML1060168950.1.2.0,Phases=2,Linecode=CABBTG04_4_2,Length=0.017000000,Units=km
new line.RML10168986 bus1=BBT2882012.1.3.0,bus2=RML1060168986.1.3.0,Phases=2,Linecode=CABBTG04_4_2,Length=0.017000000,Units=km
new line.RML10168993 bus1=BBT5283320.1.2.0,bus2=RML1060168993.1.2.0,Phases=2,Linecode=CABBTG04_4_2,Length=0.017000000,Units=km
new line.RML10169007 bus1=BBT2881788.2.3.0,bus2=RML1060169007.2.3.0,Phases=2,Linecode=CABBTG05_4_2,Length=0.017000000,Units=km
new line.RML10169040 bus1=BBT4212614.2.0,bus2=RML1060169040.2.0,Phases=1,Linecode=CABBTG01_4_1,Length=0.017000000,Units=km
new line.RML10169051 bus1=BBT4212516.1.2.0,bus2=RML1060169051.1.2.0,Phases=2,Linecode=CABBTG04_4_2,Length=0.017000000,Units=km
new line.RML10169061 bus1=BBT1366925.2.3.0,bus2=RML1060169061.2.3.0,Phases=2,Linecode=CABBTG05_4_2,Length=0.017000000,Units=km
new line.RML10169081 bus1=BBT1375976.1.2.3.0,bus2=RML1060169081.1.2.3.0,Phases=3,Linecode=CABBTG06_4_3,Length=0.017000000,Units=km
new line.RML10169086 bus1=BBT2838976.1.2.3.0,bus2=RML1060169086.1.2.3.0,Phases=3,Linecode=CABBTG06_4_3,Length=0.017000000,Units=km
new line.RML10169138 bus1=BBT1723715.1.2.0,bus2=RML1060169138.1.2.0,Phases=2,Linecode=CABBTG04_4_2,Length=0.017000000,Units=km
new line.RML10169143 bus1=BBT1366659.2.3.0,bus2=RML1060169143.2.3.0,Phases=2,Linecode=CABBTG04_4_2,Length=0.017000000,Units=km
new line.RML10169175 bus1=BBT1366925.2.3.0,bus2=RML1060169175.2.3.0,Phases=2,Linecode=CABBTG04_4_2,Length=0.017000000,Units=km
new line.RML10169480 bus1=BBT4705722.1.2.0,bus2=RML1060169480.1.2.0,Phases=2,Linecode=CABBTG05_4_2,Length=0.017000000,Units=km
new line.RML10169695 bus1=BBT1367044.1.2.0,bus2=RML1060169695.1.2.0,Phases=2,Linecode=CABBTG04_4_2,Length=0.017000000,Units=km
new line.RML10169702 bus1=BBT1376067.1.2.3.0,bus2=RML1060169702.1.2.3.0,Phases=3,Linecode=CABBTG06_4_3,Length=0.017000000,Units=km
new line.RML10172790 bus1=BBT2850890.1.2.0,bus2=RML1060172790.1.2.0,Phases=2,Linecode=CABBTG05_4_2,Length=0.017000000,Units=km
new line.RML10172795 bus1=BBT90863714.1.2.3.0,bus2=RML1060172795.1.2.3.0,Phases=3,Linecode=CABBTG06_4_3,Length=0.017000000,Units=km
new line.RML10174799 bus1=BBT4705722.2.3.0,bus2=RML1060174799.2.3.0,Phases=2,Linecode=CABBTG05_4_2,Length=0.017000000,Units=km
new line.RML10179611 bus1=BBT58998510.1.2.0,bus2=RML1060179611.1.2.0,Phases=2,Linecode=CABBTG05_4_2,Length=0.017000000,Units=km
new line.RML10179613 bus1=BBT58998545.1.2.0,bus2=RML1060179613.1.2.0,Phases=2,Linecode=CABBTG05_4_2,Length=0.017000000,Units=km
new line.RML10182329 bus1=BBT76398543.1.2.0,bus2=RML1060182329.1.2.0,Phases=2,Linecode=CABBTG05_4_2,Length=0.017000000,Units=km
new line.RML10184279 bus1=BBT4744698.1.3.0,bus2=RML1060184279.1.3.0,Phases=2,Linecode=CABBTG05_4_2,Length=0.017000000,Units=km
new line.RML10187321 bus1=BBT1336769.1.3.0,bus2=RML1060187321.1.3.0,Phases=2,Linecode=CABBTG05_4_2,Length=0.017000000,Units=km
new line.RML10187355 bus1=BBT1341739.1.2.0,bus2=RML1060187355.1.2.0,Phases=2,Linecode=CABBTG05_4_2,Length=0.017000000,Units=km
new line.RML10187551 bus1=BBT1336902.1.2.0,bus2=RML1060187551.1.2.0,Phases=2,Linecode=CABBTG04_4_2,Length=0.017000000,Units=km
new line.RML10187553 bus1=BBT1337273.2.0,bus2=RML1060187553.2.0,Phases=1,Linecode=CABBTG01_4_1,Length=0.017000000,Units=km
new line.RML10187556 bus1=BBT1337350.1.2.0,bus2=RML1060187556.1.2.0,Phases=2,Linecode=CABBTG04_4_2,Length=0.017000000,Units=km
new line.RML10189523 bus1=BBT1725668.1.2.0,bus2=RML1060189523.1.2.0,Phases=2,Linecode=CABBTG05_4_2,Length=0.017000000,Units=km
new line.RML10189548 bus1=BBT137134883.2.3.0,bus2=RML1060189548.2.3.0,Phases=2,Linecode=CABBTG05_4_2,Length=0.017000000,Units=km
new line.RML10190089 bus1=BBT4744691.1.2.0,bus2=RML1060190089.1.2.0,Phases=2,Linecode=CABBTG04_4_2,Length=0.017000000,Units=km
new line.RML10190093 bus1=BBT4744698.2.3.0,bus2=RML1060190093.2.3.0,Phases=2,Linecode=CABBTG05_4_2,Length=0.017000000,Units=km
new line.RML10190098 bus1=BBT1726326.2.3.0,bus2=RML1060190098.2.3.0,Phases=2,Linecode=CABBTG05_4_2,Length=0.017000000,Units=km
new line.RML10190104 bus1=BBT4744418.1.2.3.0,bus2=RML1060190104.1.2.3.0,Phases=3,Linecode=CABBTG06_4_3,Length=0.017000000,Units=km
new line.RML10190113 bus1=BBT4744544.1.2.0,bus2=RML1060190113.1.2.0,Phases=2,Linecode=CABBTG05_4_2,Length=0.017000000,Units=km
new line.RML10190117 bus1=BBT4744698.2.3.0,bus2=RML1060190117.2.3.0,Phases=2,Linecode=CABBTG04_4_2,Length=0.017000000,Units=km
new line.RML10190122 bus1=BBT1726305.2.3.0,bus2=RML1060190122.2.3.0,Phases=2,Linecode=CABBTG04_4_2,Length=0.017000000,Units=km
new line.RML10190125 bus1=BBT4744537.1.2.0,bus2=RML1060190125.1.2.0,Phases=2,Linecode=CABBTG04_4_2,Length=0.017000000,Units=km
new line.RML10190129 bus1=BBT4744397.2.3.0,bus2=RML1060190129.2.3.0,Phases=2,Linecode=CABBTG04_4_2,Length=0.017000000,Units=km
new line.RML10190132 bus1=BBT4744397.1.3.0,bus2=RML1060190132.1.3.0,Phases=2,Linecode=CABBTG04_4_2,Length=0.017000000,Units=km
new line.RML10190155 bus1=BBT1388478.1.2.3.0,bus2=RML1060190155.1.2.3.0,Phases=3,Linecode=CABBTG06_4_3,Length=0.017000000,Units=km
new line.RML10190175 bus1=BBT4447807.1.2.0,bus2=RML1060190175.1.2.0,Phases=2,Linecode=CABBTG05_4_2,Length=0.017000000,Units=km
new line.RML10190178 bus1=BBT1386553.1.2.3.0,bus2=RML1060190178.1.2.3.0,Phases=3,Linecode=CABBTG06_4_3,Length=0.017000000,Units=km
new line.RML10190185 bus1=BBT1386616.2.3.0,bus2=RML1060190185.2.3.0,Phases=2,Linecode=CABBTG04_4_2,Length=0.017000000,Units=km
new line.RML10190188 bus1=BBT1382990.1.2.0,bus2=RML1060190188.1.2.0,Phases=2,Linecode=CABBTG05_4_2,Length=0.017000000,Units=km
new line.RML10190204 bus1=BBT1348039.1.2.0,bus2=RML1060190204.1.2.0,Phases=2,Linecode=CABBTG05_4_2,Length=0.017000000,Units=km
new line.RML10190217 bus1=BBT4744635.1.2.0,bus2=RML1060190217.1.2.0,Phases=2,Linecode=CABBTG04_4_2,Length=0.017000000,Units=km
new line.RML10190230 bus1=BBT4744600.1.2.0,bus2=RML1060190230.1.2.0,Phases=2,Linecode=CABBTG05_4_2,Length=0.017000000,Units=km
new line.RML10190481 bus1=BBT1339618.1.2.3.0,bus2=RML1060190481.1.2.3.0,Phases=3,Linecode=CABBT815_4_3,Length=0.017000000,Units=km
new line.RML10199777 bus1=BBT2851170.1.2.0,bus2=RML1060199777.1.2.0,Phases=2,Linecode=CABBTG05_4_2,Length=0.017000000,Units=km
new line.RML10199783 bus1=BBT2851191.1.2.0,bus2=RML1060199783.1.2.0,Phases=2,Linecode=CABBTG05_4_2,Length=0.017000000,Units=km
new line.RML10199803 bus1=BBT1338085.1.2.3.0,bus2=RML1060199803.1.2.3.0,Phases=3,Linecode=CABBTG06_4_3,Length=0.017000000,Units=km
new line.RML10203774 bus1=BBT148843358.1.2.0,bus2=RML1060203774.1.2.0,Phases=2,Linecode=CABBTG05_4_2,Length=0.017000000,Units=km
new line.RML10203849 bus1=BBT150181291.1.2.0,bus2=RML1060203849.1.2.0,Phases=2,Linecode=CABBTG05_4_2,Length=0.017000000,Units=km
new line.RML10203857 bus1=BBT150181291.1.2.0,bus2=RML1060203857.1.2.0,Phases=2,Linecode=CABBTG05_4_2,Length=0.017000000,Units=km
new line.RML10203972 bus1=BBT1367051.1.2.3.0,bus2=RML1060203972.1.2.3.0,Phases=3,Linecode=CABBTG06_4_3,Length=0.017000000,Units=km
new line.RML10205737 bus1=BBT2704303.1.2.3.0,bus2=RML1060205737.1.2.3.0,Phases=3,Linecode=CABBTG06_4_3,Length=0.017000000,Units=km
new line.RML10205747 bus1=BBT1329195.1.2.0,bus2=RML1060205747.1.2.0,Phases=2,Linecode=CABBTG05_4_2,Length=0.017000000,Units=km
new line.RML10205851 bus1=BBT1366561.2.3.0,bus2=RML1060205851.2.3.0,Phases=2,Linecode=CABBTG05_4_2,Length=0.017000000,Units=km
new line.RML10206335 bus1=BBT10430469.1.0,bus2=RML1060206335.1.0,Phases=1,Linecode=CABBTG02_4_1,Length=0.017000000,Units=km
new line.RML10212419 bus1=BBT149929129.1.0,bus2=RML1060212419.1.0,Phases=1,Linecode=CABBTG02_4_1,Length=0.029000000,Units=km
new line.RML10216682 bus1=BBT149929719.1.0,bus2=RML1060216682.1.0,Phases=1,Linecode=CABBTG02_4_1,Length=0.017000000,Units=km
new line.RML10217137 bus1=BBT149929072.1.2.0,bus2=RML1060217137.1.2.0,Phases=2,Linecode=CABBTG05_4_2,Length=0.017000000,Units=km
new line.RML10217141 bus1=BBT149929058.1.2.0,bus2=RML1060217141.1.2.0,Phases=2,Linecode=CABBTG05_4_2,Length=0.017000000,Units=km
new line.RML10217277 bus1=BBT150059969.1.2.0,bus2=RML1060217277.1.2.0,Phases=2,Linecode=CABBTG05_4_2,Length=0.017000000,Units=km
new line.RML10217413 bus1=BBT150155316.1.2.0,bus2=RML1060217413.1.2.0,Phases=2,Linecode=CABBTG05_4_2,Length=0.017000000,Units=km
new line.RML10217434 bus1=BBT5283257.1.2.0,bus2=RML1060217434.1.2.0,Phases=2,Linecode=CABBTG05_4_2,Length=0.017000000,Units=km
new line.RML10217494 bus1=BBT2881774.1.2.0,bus2=RML1060217494.1.2.0,Phases=2,Linecode=CABBTG05_4_2,Length=0.017000000,Units=km
new line.RML10217504 bus1=BBT4705645.1.3.0,bus2=RML1060217504.1.3.0,Phases=2,Linecode=CABBTG05_4_2,Length=0.017000000,Units=km
new line.RML10217523 bus1=BBT1765491.1.3.0,bus2=RML1060217523.1.3.0,Phases=2,Linecode=CABBTG05_4_2,Length=0.017000000,Units=km
new line.RML10217749 bus1=BBT4744397.1.2.0,bus2=RML1060217749.1.2.0,Phases=2,Linecode=CABBTG05_4_2,Length=0.017000000,Units=km
new line.RML10217750 bus1=BBT1344602.1.2.0,bus2=RML1060217750.1.2.0,Phases=2,Linecode=CABBTG05_4_2,Length=0.017000000,Units=km
new line.RML10217791 bus1=BBT1335719.1.2.0,bus2=RML1060217791.1.2.0,Phases=2,Linecode=CABBTG05_4_2,Length=0.017000000,Units=km
new line.RML10217876 bus1=BBT1335719.1.2.0,bus2=RML1060217876.1.2.0,Phases=2,Linecode=CABBTG05_4_2,Length=0.017000000,Units=km
new line.RML10217972 bus1=BBT132484881.1.2.0,bus2=RML1060217972.1.2.0,Phases=2,Linecode=CABBTG05_4_2,Length=0.017000000,Units=km
new line.RML10217984 bus1=BBT3501043.1.2.0,bus2=RML1060217984.1.2.0,Phases=2,Linecode=CABBTG05_4_2,Length=0.017000000,Units=km
new line.RML10217985 bus1=BBT149929072.1.0,bus2=RML1060217985.1.0,Phases=1,Linecode=CABBTG02_4_1,Length=0.017000000,Units=km
new line.RML10218058 bus1=BBT149929693.1.2.0,bus2=RML1060218058.1.2.0,Phases=2,Linecode=CABBTG05_4_2,Length=0.017000000,Units=km
new line.RML10218718 bus1=BBT1343755.1.2.0,bus2=RML1060218718.1.2.0,Phases=2,Linecode=CABBTG05_4_2,Length=0.017000000,Units=km
new line.RML10218720 bus1=BBT1343706.1.2.3.0,bus2=RML1060218720.1.2.3.0,Phases=3,Linecode=CABBTG06_4_3,Length=0.017000000,Units=km
new line.RML10218722 bus1=BBT1344546.1.2.0,bus2=RML1060218722.1.2.0,Phases=2,Linecode=CABBTG05_4_2,Length=0.017000000,Units=km
new line.RML10218723 bus1=BBT2704170.1.3.0,bus2=RML1060218723.1.3.0,Phases=2,Linecode=CABBTG05_4_2,Length=0.017000000,Units=km
new line.RML10218724 bus1=BBT1344602.2.3.0,bus2=RML1060218724.2.3.0,Phases=2,Linecode=CABBTG05_4_2,Length=0.017000000,Units=km
new line.RML10218725 bus1=BBT2704149.1.3.0,bus2=RML1060218725.1.3.0,Phases=2,Linecode=CABBTG05_4_2,Length=0.017000000,Units=km
new line.RML10218726 bus1=BBT1343769.1.3.0,bus2=RML1060218726.1.3.0,Phases=2,Linecode=CABBTG05_4_2,Length=0.017000000,Units=km
new line.RML10218728 bus1=BBT2704940.2.3.0,bus2=RML1060218728.2.3.0,Phases=2,Linecode=CABBTG05_4_2,Length=0.017000000,Units=km
new line.RML10218730 bus1=BBT2704884.2.3.0,bus2=RML1060218730.2.3.0,Phases=2,Linecode=CABBTG05_4_2,Length=0.017000000,Units=km
new line.RML10218731 bus1=BBT2704226.1.0,bus2=RML1060218731.1.0,Phases=1,Linecode=CABBTG02_4_1,Length=0.017000000,Units=km
new line.RML10218737 bus1=BBT1725647.1.2.0,bus2=RML1060218737.1.2.0,Phases=2,Linecode=CABBTG05_4_2,Length=0.017000000,Units=km
new line.RML10218765 bus1=BBT2706305.1.3.0,bus2=RML1060218765.1.3.0,Phases=2,Linecode=CABBTG05_4_2,Length=0.017000000,Units=km
new line.RML10218766 bus1=BBT2705822.1.3.0,bus2=RML1060218766.1.3.0,Phases=2,Linecode=CABBTG05_4_2,Length=0.017000000,Units=km
new line.RML10218770 bus1=BBT2704415.2.3.0,bus2=RML1060218770.2.3.0,Phases=2,Linecode=CABBTG05_4_2,Length=0.017000000,Units=km
new line.RML10218771 bus1=BBT1343762.1.2.0,bus2=RML1060218771.1.2.0,Phases=2,Linecode=CABBTG05_4_2,Length=0.017000000,Units=km
new line.RML10219926 bus1=BBT149929055.1.0,bus2=RML1060219926.1.0,Phases=1,Linecode=CABBTG02_4_1,Length=0.017000000,Units=km
new line.RML10219943 bus1=BBT149929693.1.0,bus2=RML1060219943.1.0,Phases=1,Linecode=CABBTG02_4_1,Length=0.017000000,Units=km
new line.RML10219956 bus1=BBT2977506.1.2.0,bus2=RML1060219956.1.2.0,Phases=2,Linecode=CABBTG05_4_2,Length=0.017000000,Units=km