! manter este comentario para compatibilidade do C#
new circuit.alimPSAU13 bus1=BMT124405859.1.2.3,basekv=13.800000000,pu=1.040000000