new line.RML1000001 bus1=BBT546737.1.0,bus2=RML201000001.1.0,Phases=1,Linecode=CABBTG01_4_1,Length=0.017000000,Units=km
new line.RML10000075 bus1=BBT3920709.2.0,bus2=RML210000075.2.0,Phases=1,Linecode=CABBTG02_4_1,Length=0.017000000,Units=km
new line.RML1000008 bus1=BBT546737.2.0,bus2=RML201000008.2.0,Phases=1,Linecode=CABBTG01_4_1,Length=0.017000000,Units=km
new line.RML10000089 bus1=BBT138092747.2.3.0,bus2=RML210000089.2.3.0,Phases=2,Linecode=CABBTG05_4_2,Length=0.017000000,Units=km
new line.RML1000015 bus1=BBT546737.1.0,bus2=RML201000015.1.0,Phases=1,Linecode=CABBTG01_4_1,Length=0.017000000,Units=km
new line.RML10000152 bus1=BBT448954.2.3.0,bus2=RML210000152.2.3.0,Phases=2,Linecode=CABBTG05_4_2,Length=0.017000000,Units=km
new line.RML1000022 bus1=BBT546737.1.0,bus2=RML201000022.1.0,Phases=1,Linecode=CABBTG01_4_1,Length=0.017000000,Units=km
new line.RML1000029 bus1=BBT546751.1.0,bus2=RML201000029.1.0,Phases=1,Linecode=CABBTG01_4_1,Length=0.017000000,Units=km
new line.RML1000036 bus1=BBT546758.2.0,bus2=RML201000036.2.0,Phases=1,Linecode=CABBTG01_4_1,Length=0.017000000,Units=km
new line.RML1000043 bus1=BBT546758.1.2.3.0,bus2=RML201000043.1.2.3.0,Phases=3,Linecode=CABBTG06_4_3,Length=0.017000000,Units=km
new line.RML1000050 bus1=BBT546765.3.0,bus2=RML201000050.3.0,Phases=1,Linecode=CABBTG01_4_1,Length=0.017000000,Units=km
new line.RML1000057 bus1=BBT546765.1.0,bus2=RML201000057.1.0,Phases=1,Linecode=CABBTG01_4_1,Length=0.017000000,Units=km
new line.RML1000064 bus1=BBT546765.1.2.3.0,bus2=RML201000064.1.2.3.0,Phases=3,Linecode=CABBTG07_4_3,Length=0.017000000,Units=km
new line.RML1000071 bus1=BBT546772.2.0,bus2=RML201000071.2.0,Phases=1,Linecode=CABBTG01_4_1,Length=0.017000000,Units=km
new line.RML1000078 bus1=BBT546772.1.0,bus2=RML201000078.1.0,Phases=1,Linecode=CABBTG01_4_1,Length=0.017000000,Units=km
new line.RML1000085 bus1=BBT546751.2.3.0,bus2=RML201000085.2.3.0,Phases=2,Linecode=CABBTG05_4_2,Length=0.017000000,Units=km
new line.RML1000092 bus1=BBT546779.2.0,bus2=RML201000092.2.0,Phases=1,Linecode=CABBTG01_4_1,Length=0.017000000,Units=km
new line.RML1000099 bus1=BBT546779.2.0,bus2=RML201000099.2.0,Phases=1,Linecode=CABBTG01_4_1,Length=0.017000000,Units=km
new line.RML1000106 bus1=BBT546779.1.0,bus2=RML201000106.1.0,Phases=1,Linecode=CABBTG01_4_1,Length=0.017000000,Units=km
new line.RML1000113 bus1=BBT546779.1.2.3.0,bus2=RML201000113.1.2.3.0,Phases=3,Linecode=CABBTG08_4_3,Length=0.017000000,Units=km
new line.RML1000120 bus1=BBT546779.2.3.0,bus2=RML201000120.2.3.0,Phases=2,Linecode=CABBTG05_4_2,Length=0.017000000,Units=km
new line.RML1000127 bus1=BBT546779.3.0,bus2=RML201000127.3.0,Phases=1,Linecode=CABBTG01_4_1,Length=0.017000000,Units=km
new line.RML1000134 bus1=BBT546786.2.0,bus2=RML201000134.2.0,Phases=1,Linecode=CABBTG01_4_1,Length=0.017000000,Units=km
new line.RML1000141 bus1=BBT546786.2.3.0,bus2=RML201000141.2.3.0,Phases=2,Linecode=CABBTG05_4_2,Length=0.017000000,Units=km
new line.RML1000148 bus1=BBT546786.1.0,bus2=RML201000148.1.0,Phases=1,Linecode=CABBTG01_4_1,Length=0.017000000,Units=km
new line.RML1000155 bus1=BBT546786.3.0,bus2=RML201000155.3.0,Phases=1,Linecode=CABBTG01_4_1,Length=0.017000000,Units=km
new line.RML1000162 bus1=BBT546807.2.0,bus2=RML201000162.2.0,Phases=1,Linecode=CABBTG01_4_1,Length=0.017000000,Units=km
new line.RML1000169 bus1=BBT546807.1.2.3.0,bus2=RML201000169.1.2.3.0,Phases=3,Linecode=CABBTG06_4_3,Length=0.017000000,Units=km
new line.RML1000176 bus1=BBT546807.1.2.0,bus2=RML201000176.1.2.0,Phases=2,Linecode=CABBTG05_4_2,Length=0.017000000,Units=km
new line.RML1000183 bus1=BBT546807.3.0,bus2=RML201000183.3.0,Phases=1,Linecode=CABBTG01_4_1,Length=0.017000000,Units=km
new line.RML1000190 bus1=BBT546814.1.0,bus2=RML201000190.1.0,Phases=1,Linecode=CABBTG01_4_1,Length=0.017000000,Units=km
new line.RML10002581 bus1=BBT3921101.1.0,bus2=RML210002581.1.0,Phases=1,Linecode=CABBTG02_4_1,Length=0.017000000,Units=km
new line.RML10008769 bus1=BBT455114.2.0,bus2=RML210008769.2.0,Phases=1,Linecode=CABBTG03_4_1,Length=0.017000000,Units=km
new line.RML10008790 bus1=BBT3847062.1.0,bus2=RML210008790.1.0,Phases=1,Linecode=CABBTG03_4_1,Length=0.017000000,Units=km
new line.RML10008797 bus1=BBT7282249.1.2.0,bus2=RML210008797.1.2.0,Phases=2,Linecode=CABBTG13_4_2,Length=0.017000000,Units=km
new line.RML10008853 bus1=BBT592874.1.0,bus2=RML210008853.1.0,Phases=1,Linecode=CABBTG02_4_1,Length=0.017000000,Units=km
new line.RML10008874 bus1=BBT448926.1.3.0,bus2=RML210008874.1.3.0,Phases=2,Linecode=CABBTG05_4_2,Length=0.017000000,Units=km
new line.RML10008909 bus1=BBT453336.3.0,bus2=RML210008909.3.0,Phases=1,Linecode=CABBTG02_4_1,Length=0.017000000,Units=km
new line.RML10010190 bus1=BBT6568816.1.0,bus2=RML210010190.1.0,Phases=1,Linecode=CABBTG02_4_1,Length=0.017000000,Units=km
new line.RML10010309 bus1=BBT452013.3.0,bus2=RML210010309.3.0,Phases=1,Linecode=CABBTG02_4_1,Length=0.017000000,Units=km
new line.RML10020606 bus1=BBT444208.3.0,bus2=RML210020606.3.0,Phases=1,Linecode=CABBTG02_4_1,Length=0.017000000,Units=km
new line.RML10020816 bus1=BBT5249029.2.0,bus2=RML210020816.2.0,Phases=1,Linecode=CABBTG03_4_1,Length=0.017000000,Units=km
new line.RML10023147 bus1=BBT5958374.1.0,bus2=RML210023147.1.0,Phases=1,Linecode=CABBTG03_4_1,Length=0.017000000,Units=km
new line.RML10027935 bus1=BBT3849603.1.2.0,bus2=RML210027935.1.2.0,Phases=2,Linecode=CABBTG13_4_2,Length=0.017000000,Units=km
new line.RML1002850 bus1=BBT548914.3.0,bus2=RML201002850.3.0,Phases=1,Linecode=CABBTG01_4_1,Length=0.017000000,Units=km
new line.RML1002857 bus1=BBT548907.3.0,bus2=RML201002857.3.0,Phases=1,Linecode=CABBTG01_4_1,Length=0.017000000,Units=km
new line.RML1002864 bus1=BBT548921.1.0,bus2=RML201002864.1.0,Phases=1,Linecode=CABBTG01_4_1,Length=0.017000000,Units=km
new line.RML1002871 bus1=BBT548942.1.0,bus2=RML201002871.1.0,Phases=1,Linecode=CABBTG01_4_1,Length=0.017000000,Units=km
new line.RML1002878 bus1=BBT548921.1.2.0,bus2=RML201002878.1.2.0,Phases=2,Linecode=CABBTG04_4_2,Length=0.017000000,Units=km
new line.RML10028838 bus1=BBT3850366.2.0,bus2=RML210028838.2.0,Phases=1,Linecode=CABBTG02_4_1,Length=0.017000000,Units=km
new line.RML1002885 bus1=BBT548921.3.0,bus2=RML201002885.3.0,Phases=1,Linecode=CABBTG01_4_1,Length=0.017000000,Units=km
new line.RML1002892 bus1=BBT548907.2.0,bus2=RML201002892.2.0,Phases=1,Linecode=CABBTG01_4_1,Length=0.017000000,Units=km
new line.RML1002899 bus1=BBT548928.2.0,bus2=RML201002899.2.0,Phases=1,Linecode=CABBTG01_4_1,Length=0.017000000,Units=km
new line.RML10028999 bus1=BBT6036718.2.0,bus2=RML210028999.2.0,Phases=1,Linecode=CABBTG02_4_1,Length=0.017000000,Units=km
new line.RML10029041 bus1=BBT6753742.2.0,bus2=RML210029041.2.0,Phases=1,Linecode=CABBTG02_4_1,Length=0.017000000,Units=km
new line.RML10029048 bus1=BBT6210129.3.0,bus2=RML210029048.3.0,Phases=1,Linecode=CABBTG02_4_1,Length=0.017000000,Units=km
new line.RML10029083 bus1=BBT138092740.1.0,bus2=RML210029083.1.0,Phases=1,Linecode=CABBTG02_4_1,Length=0.017000000,Units=km
new line.RML10029090 bus1=BBT138092740.3.0,bus2=RML210029090.3.0,Phases=1,Linecode=CABBTG02_4_1,Length=0.017000000,Units=km
new line.RML10029097 bus1=BBT138094945.3.0,bus2=RML210029097.3.0,Phases=1,Linecode=CABBTG02_4_1,Length=0.017000000,Units=km
new line.RML10029104 bus1=BBT138094945.2.0,bus2=RML210029104.2.0,Phases=1,Linecode=CABBTG02_4_1,Length=0.017000000,Units=km
new line.RML10029111 bus1=BBT138094952.3.0,bus2=RML210029111.3.0,Phases=1,Linecode=CABBTG02_4_1,Length=0.017000000,Units=km
new line.RML10029125 bus1=BBT77111876.3.0,bus2=RML210029125.3.0,Phases=1,Linecode=CABBTG02_4_1,Length=0.017000000,Units=km
new line.RML1002913 bus1=BBT548984.1.0,bus2=RML201002913.1.0,Phases=1,Linecode=CABBTG01_4_1,Length=0.017000000,Units=km
new line.RML10029174 bus1=BBT7351017.1.0,bus2=RML210029174.1.0,Phases=1,Linecode=CABBTG02_4_1,Length=0.017000000,Units=km
new line.RML1002920 bus1=BBT548984.3.0,bus2=RML201002920.3.0,Phases=1,Linecode=CABBTG01_4_1,Length=0.017000000,Units=km
new line.RML10029209 bus1=BBT90929708.1.3.0,bus2=RML210029209.1.3.0,Phases=2,Linecode=CABBT814_4_2,Length=0.017000000,Units=km
new line.RML1002927 bus1=BBT548949.3.0,bus2=RML201002927.3.0,Phases=1,Linecode=CABBTG01_4_1,Length=0.017000000,Units=km
new line.RML1002934 bus1=BBT548949.3.0,bus2=RML201002934.3.0,Phases=1,Linecode=CABBTG01_4_1,Length=0.017000000,Units=km
new line.RML10029384 bus1=BBT450403.1.2.3.0,bus2=RML210029384.1.2.3.0,Phases=3,Linecode=CABBTG10_4_3,Length=0.017000000,Units=km
new line.RML1002941 bus1=BBT548956.1.0,bus2=RML201002941.1.0,Phases=1,Linecode=CABBTG01_4_1,Length=0.017000000,Units=km
new line.RML10029468 bus1=BBT454190.3.0,bus2=RML210029468.3.0,Phases=1,Linecode=CABBTG02_4_1,Length=0.017000000,Units=km
new line.RML1002948 bus1=BBT548977.1.2.3.0,bus2=RML201002948.1.2.3.0,Phases=3,Linecode=CABBTG07_4_3,Length=0.017000000,Units=km
new line.RML10029482 bus1=BBT138121202.2.3.0,bus2=RML210029482.2.3.0,Phases=2,Linecode=CABBTG05_4_2,Length=0.017000000,Units=km
new line.RML1002955 bus1=BBT548970.1.0,bus2=RML201002955.1.0,Phases=1,Linecode=CABBTG01_4_1,Length=0.017000000,Units=km
new line.RML1002962 bus1=BBT548977.2.0,bus2=RML201002962.2.0,Phases=1,Linecode=CABBTG01_4_1,Length=0.017000000,Units=km
new line.RML1002969 bus1=BBT548984.3.0,bus2=RML201002969.3.0,Phases=1,Linecode=CABBTG01_4_1,Length=0.017000000,Units=km
new line.RML1002976 bus1=BBT548970.1.0,bus2=RML201002976.1.0,Phases=1,Linecode=CABBTG01_4_1,Length=0.017000000,Units=km
new line.RML1002983 bus1=BBT548977.2.0,bus2=RML201002983.2.0,Phases=1,Linecode=CABBTG01_4_1,Length=0.017000000,Units=km
new line.RML1002990 bus1=BBT548984.1.0,bus2=RML201002990.1.0,Phases=1,Linecode=CABBTG01_4_1,Length=0.017000000,Units=km
new line.RML1002997 bus1=BBT548984.3.0,bus2=RML201002997.3.0,Phases=1,Linecode=CABBTG01_4_1,Length=0.017000000,Units=km
new line.RML1003004 bus1=BBT488014.2.0,bus2=RML201003004.2.0,Phases=1,Linecode=CABBTG02_4_1,Length=0.012000000,Units=km
new line.RML1003011 bus1=BBT488007.1.0,bus2=RML201003011.1.0,Phases=1,Linecode=CABBTG01_4_1,Length=0.017000000,Units=km
new line.RML1003018 bus1=BBT548991.1.0,bus2=RML201003018.1.0,Phases=1,Linecode=CABBTG01_4_1,Length=0.017000000,Units=km
new line.RML1003025 bus1=BBT548998.2.0,bus2=RML201003025.2.0,Phases=1,Linecode=CABBTG02_4_1,Length=0.017000000,Units=km
new line.RML1003032 bus1=BBT549005.1.0,bus2=RML201003032.1.0,Phases=1,Linecode=CABBTG01_4_1,Length=0.017000000,Units=km
new line.RML1003039 bus1=BBT549012.3.0,bus2=RML201003039.3.0,Phases=1,Linecode=CABBTG01_4_1,Length=0.017000000,Units=km
new line.RML1003046 bus1=BBT549012.1.0,bus2=RML201003046.1.0,Phases=1,Linecode=CABBTG01_4_1,Length=0.017000000,Units=km
new line.RML1003053 bus1=BBT549012.2.0,bus2=RML201003053.2.0,Phases=1,Linecode=CABBTG01_4_1,Length=0.017000000,Units=km
new line.RML1003060 bus1=BBT549012.2.0,bus2=RML201003060.2.0,Phases=1,Linecode=CABBTG01_4_1,Length=0.017000000,Units=km
new line.RML1003067 bus1=BBT549026.3.0,bus2=RML201003067.3.0,Phases=1,Linecode=CABBTG01_4_1,Length=0.017000000,Units=km
new line.RML1003074 bus1=BBT549096.1.0,bus2=RML201003074.1.0,Phases=1,Linecode=CABBTG01_4_1,Length=0.017000000,Units=km
new line.RML1003081 bus1=BBT549033.1.0,bus2=RML201003081.1.0,Phases=1,Linecode=CABBTG01_4_1,Length=0.017000000,Units=km
new line.RML1003088 bus1=BBT549033.3.0,bus2=RML201003088.3.0,Phases=1,Linecode=CABBTG01_4_1,Length=0.017000000,Units=km
new line.RML1003095 bus1=BBT549040.1.2.0,bus2=RML201003095.1.2.0,Phases=2,Linecode=CABBTG05_4_2,Length=0.017000000,Units=km
new line.RML1003102 bus1=BBT549054.1.2.0,bus2=RML201003102.1.2.0,Phases=2,Linecode=CABBTG05_4_2,Length=0.017000000,Units=km
new line.RML1003109 bus1=BBT549089.2.0,bus2=RML201003109.2.0,Phases=1,Linecode=CABBTG01_4_1,Length=0.017000000,Units=km
new line.RML1003116 bus1=BBT549096.1.0,bus2=RML201003116.1.0,Phases=1,Linecode=CABBTG01_4_1,Length=0.017000000,Units=km
new line.RML1003123 bus1=BBT549096.3.0,bus2=RML201003123.3.0,Phases=1,Linecode=CABBTG01_4_1,Length=0.017000000,Units=km
new line.RML1003130 bus1=BBT549096.1.3.0,bus2=RML201003130.1.3.0,Phases=2,Linecode=CABBTG05_4_2,Length=0.017000000,Units=km
new line.RML1003137 bus1=BBT549103.3.0,bus2=RML201003137.3.0,Phases=1,Linecode=CABBTG01_4_1,Length=0.017000000,Units=km
new line.RML1003144 bus1=BBT549110.2.0,bus2=RML201003144.2.0,Phases=1,Linecode=CABBTG01_4_1,Length=0.017000000,Units=km
new line.RML1003158 bus1=BBT549124.2.0,bus2=RML201003158.2.0,Phases=1,Linecode=CABBTG01_4_1,Length=0.017000000,Units=km
new line.RML1003165 bus1=BBT549124.3.0,bus2=RML201003165.3.0,Phases=1,Linecode=CABBTG01_4_1,Length=0.017000000,Units=km
new line.RML1003172 bus1=BBT549131.2.0,bus2=RML201003172.2.0,Phases=1,Linecode=CABBTG01_4_1,Length=0.017000000,Units=km
new line.RML1003179 bus1=BBT549138.1.0,bus2=RML201003179.1.0,Phases=1,Linecode=CABBTG01_4_1,Length=0.017000000,Units=km
new line.RML1003186 bus1=BBT549131.3.0,bus2=RML201003186.3.0,Phases=1,Linecode=CABBTG01_4_1,Length=0.017000000,Units=km
new line.RML10085647 bus1=BBT488427.2.3.0,bus2=RML210085647.2.3.0,Phases=2,Linecode=CABBTG05_4_2,Length=0.017000000,Units=km
new line.RML10085652 bus1=BBT538932.2.0,bus2=RML210085652.2.0,Phases=1,Linecode=CABBTG02_4_1,Length=0.017000000,Units=km
new line.RML10085805 bus1=BBT3846194.3.0,bus2=RML210085805.3.0,Phases=1,Linecode=CABBTG02_4_1,Length=0.017000000,Units=km
new line.RML10085848 bus1=BBT130250570.1.3.0,bus2=RML210085848.1.3.0,Phases=2,Linecode=CABBTG05_4_2,Length=0.017000000,Units=km
new line.RML10085937 bus1=BBT3339968.2.0,bus2=RML210085937.2.0,Phases=1,Linecode=CABBTG02_4_1,Length=0.017000000,Units=km
new line.RML10086375 bus1=BBT105050766.2.0,bus2=RML210086375.2.0,Phases=1,Linecode=CABBTG02_4_1,Length=0.017000000,Units=km
new line.RML10086702 bus1=BBT2801017.3.0,bus2=RML210086702.3.0,Phases=1,Linecode=CABBTG02_4_1,Length=0.017000000,Units=km
new line.RML10086998 bus1=BBT138119879.3.0,bus2=RML210086998.3.0,Phases=1,Linecode=CABBTG02_4_1,Length=0.017000000,Units=km
new line.RML10087057 bus1=BBT546618.1.0,bus2=RML210087057.1.0,Phases=1,Linecode=CABBTG02_4_1,Length=0.017000000,Units=km
new line.RML10087421 bus1=BBT448835.1.0,bus2=RML210087421.1.0,Phases=1,Linecode=CABBTG02_4_1,Length=0.017000000,Units=km
new line.RML10087446 bus1=BBT447435.1.2.0,bus2=RML210087446.1.2.0,Phases=2,Linecode=CABBTG05_4_2,Length=0.017000000,Units=km
new line.RML10046796 bus1=BBT445909.1.2.0,bus2=RML210046796.1.2.0,Phases=2,Linecode=CABBTG13_4_2,Length=0.017000000,Units=km
new line.RML10046809 bus1=BBT3849841.3.0,bus2=RML210046809.3.0,Phases=1,Linecode=CABBTG02_4_1,Length=0.017000000,Units=km
new line.RML10046881 bus1=BBT453959.1.2.0,bus2=RML210046881.1.2.0,Phases=2,Linecode=CABBTG13_4_2,Length=0.017000000,Units=km
new line.RML10047179 bus1=BBT444285.1.0,bus2=RML210047179.1.0,Phases=1,Linecode=CABBTG02_4_1,Length=0.017000000,Units=km
new line.RML10047180 bus1=BBT447946.2.0,bus2=RML210047180.2.0,Phases=1,Linecode=CABBTG02_4_1,Length=0.017000000,Units=km
new line.RML10047181 bus1=BBT446861.2.0,bus2=RML210047181.2.0,Phases=1,Linecode=CABBTG02_4_1,Length=0.017000000,Units=km
new line.RML10048123 bus1=BBT447344.1.0,bus2=RML210048123.1.0,Phases=1,Linecode=CABBTG02_4_1,Length=0.017000000,Units=km
new line.RML10048125 bus1=BBT447351.1.0,bus2=RML210048125.1.0,Phases=1,Linecode=CABBTG02_4_1,Length=0.017000000,Units=km
new line.RML10048648 bus1=BBT549096.3.0,bus2=RML210048648.3.0,Phases=1,Linecode=CABBTG02_4_1,Length=0.017000000,Units=km
new line.RML10049022 bus1=BBT2802480.3.0,bus2=RML210049022.3.0,Phases=1,Linecode=CABBTG02_4_1,Length=0.017000000,Units=km
new line.RML10049608 bus1=BBT3846446.2.0,bus2=RML210049608.2.0,Phases=1,Linecode=CABBTG02_4_1,Length=0.017000000,Units=km
new line.RML10049681 bus1=BBT3850135.1.0,bus2=RML210049681.1.0,Phases=1,Linecode=CABBTG02_4_1,Length=0.017000000,Units=km
new line.RML10049831 bus1=BBT449857.2.0,bus2=RML210049831.2.0,Phases=1,Linecode=CABBTG02_4_1,Length=0.017000000,Units=km
new line.RML10049967 bus1=BBT549124.2.0,bus2=RML210049967.2.0,Phases=1,Linecode=CABBTG01_4_1,Length=0.017000000,Units=km
new line.RML10051360 bus1=BBT4872282.1.2.3.0,bus2=RML210051360.1.2.3.0,Phases=3,Linecode=CABBTG06_4_3,Length=0.017000000,Units=km
new line.RML10051364 bus1=BBT439966.2.3.0,bus2=RML210051364.2.3.0,Phases=2,Linecode=CABBTG05_4_2,Length=0.017000000,Units=km
new line.RML10051394 bus1=BBT11686621.1.2.0,bus2=RML210051394.1.2.0,Phases=2,Linecode=CABBTG05_4_2,Length=0.017000000,Units=km
new line.RML10051447 bus1=BBT11690457.3.0,bus2=RML210051447.3.0,Phases=1,Linecode=CABBTG02_4_1,Length=0.017000000,Units=km
new line.RML10051451 bus1=BBT447351.1.2.0,bus2=RML210051451.1.2.0,Phases=2,Linecode=CABBTG05_4_2,Length=0.017000000,Units=km
new line.RML10051524 bus1=BBT133367453.2.0,bus2=RML210051524.2.0,Phases=1,Linecode=CABBTG02_4_1,Length=0.017000000,Units=km
new line.RML10051540 bus1=BBT5382918.1.0,bus2=RML210051540.1.0,Phases=1,Linecode=CABBTG02_4_1,Length=0.017000000,Units=km
new line.RML10052099 bus1=BBT148190158.1.2.0,bus2=RML210052099.1.2.0,Phases=2,Linecode=CABBTG05_4_2,Length=0.020000000,Units=km
new line.RML10052143 bus1=BBT90929694.3.0,bus2=RML210052143.3.0,Phases=1,Linecode=CABBTG02_4_1,Length=0.017000000,Units=km
new line.RML10052219 bus1=BBT3846586.1.0,bus2=RML210052219.1.0,Phases=1,Linecode=CABBTG02_4_1,Length=0.017000000,Units=km
new line.RML10052287 bus1=BBT448562.1.2.3.0,bus2=RML210052287.1.2.3.0,Phases=3,Linecode=CABBTG07_4_3,Length=0.017000000,Units=km
new line.RML10052294 bus1=BBT448037.2.0,bus2=RML210052294.2.0,Phases=1,Linecode=CABBTG02_4_1,Length=0.017000000,Units=km
new line.RML10052295 bus1=BBT4468739.1.2.0,bus2=RML210052295.1.2.0,Phases=2,Linecode=CABBTG05_4_2,Length=0.017000000,Units=km
new line.RML10052315 bus1=BBT6568900.1.2.0,bus2=RML210052315.1.2.0,Phases=2,Linecode=CABBTG13_4_2,Length=0.017000000,Units=km
new line.RML10052454 bus1=BBT130251851.3.0,bus2=RML210052454.3.0,Phases=1,Linecode=CABBTG02_4_1,Length=0.017000000,Units=km
new line.RML10052455 bus1=BBT4872191.3.0,bus2=RML210052455.3.0,Phases=1,Linecode=CABBTG02_4_1,Length=0.017000000,Units=km
new line.RML10052949 bus1=BBT148512700.1.0,bus2=RML210052949.1.0,Phases=1,Linecode=CABBTG02_4_1,Length=0.017000000,Units=km
new line.RML10053024 bus1=BBT3846600.1.2.0,bus2=RML210053024.1.2.0,Phases=2,Linecode=CABBTG05_4_2,Length=0.017000000,Units=km
new line.RML10053043 bus1=BBT78954787.2.0,bus2=RML210053043.2.0,Phases=1,Linecode=CABBTG02_4_1,Length=0.017000000,Units=km
new line.RML10094635 bus1=BBT161412679.1.3.0,bus2=RML210094635.1.3.0,Phases=2,Linecode=CABBTG05_4_2,Length=0.017000000,Units=km
new line.RML10094946 bus1=BBT454680.1.2.0,bus2=RML210094946.1.2.0,Phases=2,Linecode=CABBTG05_4_2,Length=0.017000000,Units=km
new line.RML10094959 bus1=BBT133372983.1.2.0,bus2=RML210094959.1.2.0,Phases=2,Linecode=CABBTG05_4_2,Length=0.017000000,Units=km
new line.RML10095029 bus1=BBT3352295.1.0,bus2=RML210095029.1.0,Phases=1,Linecode=CABBTG02_4_1,Length=0.017000000,Units=km
new line.RML10095040 bus1=BBT149317800.2.0,bus2=RML210095040.2.0,Phases=1,Linecode=CABBTG02_4_1,Length=0.017000000,Units=km
new line.RML10095165 bus1=BBT3846558.1.0,bus2=RML210095165.1.0,Phases=1,Linecode=CABBTG02_4_1,Length=0.017000000,Units=km
new line.RML10087454 bus1=BBT20661643.1.2.3.0,bus2=RML210087454.1.2.3.0,Phases=3,Linecode=CABBTG12_4_3,Length=0.017000000,Units=km
new line.RML10087500 bus1=BBT454848.1.0,bus2=RML210087500.1.0,Phases=1,Linecode=CABBTG02_4_1,Length=0.017000000,Units=km
new line.RML10087519 bus1=BBT444285.1.2.3.0,bus2=RML210087519.1.2.3.0,Phases=3,Linecode=CABBTG06_4_3,Length=0.017000000,Units=km
new line.RML10087525 bus1=BBT23138124.1.0,bus2=RML210087525.1.0,Phases=1,Linecode=CABBTG02_4_1,Length=0.017000000,Units=km
new line.RML10087547 bus1=BBT6568872.1.0,bus2=RML210087547.1.0,Phases=1,Linecode=CABBTG02_4_1,Length=0.017000000,Units=km
new line.RML10087572 bus1=BBT89203032.1.2.0,bus2=RML210087572.1.2.0,Phases=2,Linecode=CABBTG05_4_2,Length=0.017000000,Units=km
new line.RML10087605 bus1=BBT59592682.1.2.0,bus2=RML210087605.1.2.0,Phases=2,Linecode=CABBTG05_4_2,Length=0.017000000,Units=km
new line.RML10087621 bus1=BBT6568865.1.0,bus2=RML210087621.1.0,Phases=1,Linecode=CABBTG02_4_1,Length=0.017000000,Units=km
new line.RML10087625 bus1=BBT138121202.1.0,bus2=RML210087625.1.0,Phases=1,Linecode=CABBTG02_4_1,Length=0.017000000,Units=km
new line.RML10087674 bus1=BBT138080994.2.0,bus2=RML210087674.2.0,Phases=1,Linecode=CABBTG02_4_1,Length=0.017000000,Units=km
new line.RML10087683 bus1=BBT138092747.1.0,bus2=RML210087683.1.0,Phases=1,Linecode=CABBTG02_4_1,Length=0.017000000,Units=km
new line.RML10087704 bus1=BBT566358.1.2.0,bus2=RML210087704.1.2.0,Phases=2,Linecode=CABBTG05_4_2,Length=0.017000000,Units=km
new line.RML10087718 bus1=BBT6568816.2.0,bus2=RML210087718.2.0,Phases=1,Linecode=CABBTG02_4_1,Length=0.017000000,Units=km
new line.RML10087723 bus1=BBT130251984.3.0,bus2=RML210087723.3.0,Phases=1,Linecode=CABBTG02_4_1,Length=0.017000000,Units=km
new line.RML10087839 bus1=BBT2802669.1.0,bus2=RML210087839.1.0,Phases=1,Linecode=CABBTG02_4_1,Length=0.017000000,Units=km
new line.RML10087944 bus1=BBT576599.1.0,bus2=RML210087944.1.0,Phases=1,Linecode=CABBTG02_4_1,Length=0.017000000,Units=km
new line.RML10087993 bus1=BBT3846558.2.0,bus2=RML210087993.2.0,Phases=1,Linecode=CABBTG02_4_1,Length=0.017000000,Units=km
new line.RML10088003 bus1=BBT448856.1.2.3.0,bus2=RML210088003.1.2.3.0,Phases=3,Linecode=CABBTG06_4_3,Length=0.017000000,Units=km
new line.RML10088007 bus1=BBT149311257.1.2.0,bus2=RML210088007.1.2.0,Phases=2,Linecode=CABBTG05_4_2,Length=0.017000000,Units=km
new line.RML10088008 bus1=BBT149038145.1.0,bus2=RML210088008.1.0,Phases=1,Linecode=CABBTG02_4_1,Length=0.017000000,Units=km
new line.RML10088095 bus1=BBT6025056.1.0,bus2=RML210088095.1.0,Phases=1,Linecode=CABBTG01_4_1,Length=0.017000000,Units=km
new line.RML10088269 bus1=BBT3850646.2.0,bus2=RML210088269.2.0,Phases=1,Linecode=CABBTG02_4_1,Length=0.017000000,Units=km
new line.RML10088292 bus1=BBT61680145.1.0,bus2=RML210088292.1.0,Phases=1,Linecode=CABBTG02_4_1,Length=0.017000000,Units=km
new line.RML10088319 bus1=BBT6568746.1.0,bus2=RML210088319.1.0,Phases=1,Linecode=CABBTG02_4_1,Length=0.017000000,Units=km
new line.RML10088438 bus1=BBT3849624.2.0,bus2=RML210088438.2.0,Phases=1,Linecode=CABBTG02_4_1,Length=0.017000000,Units=km
new line.RML10088442 bus1=BBT6568767.1.0,bus2=RML210088442.1.0,Phases=1,Linecode=CABBTG02_4_1,Length=0.017000000,Units=km
new line.RML10088538 bus1=BBT6997811.3.0,bus2=RML210088538.3.0,Phases=1,Linecode=CABBTG02_4_1,Length=0.017000000,Units=km
new line.RML10088554 bus1=BBT6568809.1.2.0,bus2=RML210088554.1.2.0,Phases=2,Linecode=CABBTG05_4_2,Length=0.017000000,Units=km
new line.RML10089410 bus1=BBT149317800.2.0,bus2=RML210089410.2.0,Phases=1,Linecode=CABBTG02_4_1,Length=0.012000000,Units=km
new line.RML10089414 bus1=BBT149317800.1.0,bus2=RML210089414.1.0,Phases=1,Linecode=CABBTG02_4_1,Length=0.013000000,Units=km
new line.RML10089425 bus1=BBT4468816.1.0,bus2=RML210089425.1.0,Phases=1,Linecode=CABBTG02_4_1,Length=0.013000000,Units=km
new line.RML10089448 bus1=BBT447358.1.0,bus2=RML210089448.1.0,Phases=1,Linecode=CABBTG02_4_1,Length=0.017000000,Units=km
new line.RML10089558 bus1=BBT3849603.2.0,bus2=RML210089558.2.0,Phases=1,Linecode=CABBTG02_4_1,Length=0.012000000,Units=km
new line.RML10089671 bus1=BBT79338737.2.0,bus2=RML210089671.2.0,Phases=1,Linecode=CABBTG02_4_1,Length=0.016000000,Units=km
new line.RML10089686 bus1=BBT25053296.1.2.3.0,bus2=RML210089686.1.2.3.0,Phases=3,Linecode=CABBTG06_4_3,Length=0.019000000,Units=km
new line.RML10089693 bus1=BBT452419.1.2.3.0,bus2=RML210089693.1.2.3.0,Phases=3,Linecode=CABBTG06_4_3,Length=0.006000000,Units=km
new line.RML10153049 bus1=BBT114453201.2.3.0,bus2=RML210153049.2.3.0,Phases=2,Linecode=CABBTG05_4_2,Length=0.017000000,Units=km
new line.RML10153057 bus1=BBT18542358.1.0,bus2=RML210153057.1.0,Phases=1,Linecode=CABBTG02_4_1,Length=0.017000000,Units=km
new line.RML10062021 bus1=BBT148191946.1.0,bus2=RML210062021.1.0,Phases=1,Linecode=CABBTG01_4_1,Length=0.017000000,Units=km
new line.RML10062083 bus1=BBT8143718.2.0,bus2=RML210062083.2.0,Phases=1,Linecode=CABBTG02_4_1,Length=0.017000000,Units=km
new line.RML10062124 bus1=BBT445629.1.0,bus2=RML210062124.1.0,Phases=1,Linecode=CABBTG01_4_1,Length=0.017000000,Units=km
new line.RML10062184 bus1=BBT6753735.1.0,bus2=RML210062184.1.0,Phases=1,Linecode=CABBTG02_4_1,Length=0.017000000,Units=km
new line.RML10062187 bus1=BBT455044.2.0,bus2=RML210062187.2.0,Phases=1,Linecode=CABBTG02_4_1,Length=0.017000000,Units=km
new line.RML10062189 bus1=BBT448877.2.0,bus2=RML210062189.2.0,Phases=1,Linecode=CABBTG02_4_1,Length=0.017000000,Units=km
new line.RML10062227 bus1=BBT3339940.1.2.0,bus2=RML210062227.1.2.0,Phases=2,Linecode=CABBTG05_4_2,Length=0.017000000,Units=km
new line.RML10062256 bus1=BBT6568669.1.2.0,bus2=RML210062256.1.2.0,Phases=2,Linecode=CABBTG04_4_2,Length=0.017000000,Units=km
new line.RML10062304 bus1=BBT149334701.1.0,bus2=RML210062304.1.0,Phases=1,Linecode=CABBTG02_4_1,Length=0.017000000,Units=km
new line.RML10062306 bus1=BBT149334701.2.0,bus2=RML210062306.2.0,Phases=1,Linecode=CABBTG02_4_1,Length=0.017000000,Units=km
new line.RML10062671 bus1=BBT447358.2.0,bus2=RML210062671.2.0,Phases=1,Linecode=CABBTG02_4_1,Length=0.017000000,Units=km
new line.RML10062778 bus1=BBT115685663.2.0,bus2=RML210062778.2.0,Phases=1,Linecode=CABBTG02_4_1,Length=0.017000000,Units=km
new line.RML10062791 bus1=BBT3850100.2.0,bus2=RML210062791.2.0,Phases=1,Linecode=CABBTG02_4_1,Length=0.017000000,Units=km
new line.RML10062792 bus1=BBT2801059.1.0,bus2=RML210062792.1.0,Phases=1,Linecode=CABBTG02_4_1,Length=0.017000000,Units=km
new line.RML10063124 bus1=BBT148794883.1.2.0,bus2=RML210063124.1.2.0,Phases=2,Linecode=CABBTG05_4_2,Length=0.017000000,Units=km
new line.RML10064431 bus1=BBT2802767.1.2.0,bus2=RML210064431.1.2.0,Phases=2,Linecode=CABBTG05_4_2,Length=0.017000000,Units=km
new line.RML10064575 bus1=BBT138091767.1.0,bus2=RML210064575.1.0,Phases=1,Linecode=CABBTG02_4_1,Length=0.017000000,Units=km
new line.RML10064576 bus1=BBT138091592.1.2.0,bus2=RML210064576.1.2.0,Phases=2,Linecode=CABBTG05_4_2,Length=0.017000000,Units=km
new line.RML10064936 bus1=BBT5249029.1.0,bus2=RML210064936.1.0,Phases=1,Linecode=CABBTG02_4_1,Length=0.017000000,Units=km
new line.RML10064953 bus1=BBT445895.3.0,bus2=RML210064953.3.0,Phases=1,Linecode=CABBTG02_4_1,Length=0.017000000,Units=km
new line.RML10065498 bus1=BBT454505.2.0,bus2=RML210065498.2.0,Phases=1,Linecode=CABBTG02_4_1,Length=0.017000000,Units=km
new line.RML10065616 bus1=BBT133372983.1.2.0,bus2=RML210065616.1.2.0,Phases=2,Linecode=CABBTG05_4_2,Length=0.017000000,Units=km
new line.RML10065621 bus1=BBT488014.1.0,bus2=RML210065621.1.0,Phases=1,Linecode=CABBTG02_4_1,Length=0.017000000,Units=km
new line.RML10066169 bus1=BBT138121202.1.2.0,bus2=RML210066169.1.2.0,Phases=2,Linecode=CABBTG05_4_2,Length=0.017000000,Units=km
new line.RML10066183 bus1=BBT94858353.3.0,bus2=RML210066183.3.0,Phases=1,Linecode=CABBTG02_4_1,Length=0.017000000,Units=km
new line.RML10066274 bus1=BBT488819.1.0,bus2=RML210066274.1.0,Phases=1,Linecode=CABBTG02_4_1,Length=0.017000000,Units=km
new line.RML10067285 bus1=BBT137883202.1.2.0,bus2=RML210067285.1.2.0,Phases=2,Linecode=CABBTG05_4_2,Length=0.017000000,Units=km
new line.RML10068235 bus1=BBT3981924.1.2.0,bus2=RML210068235.1.2.0,Phases=2,Linecode=CABBTG05_4_2,Length=0.017000000,Units=km
new line.RML10068308 bus1=BBT104212614.1.0,bus2=RML210068308.1.0,Phases=1,Linecode=CABBTG02_4_1,Length=0.017000000,Units=km
new line.RML10131027 bus1=BBT6568921.3.0,bus2=RML210131027.3.0,Phases=1,Linecode=CABBTG02_4_1,Length=0.017000000,Units=km
new line.RML10131031 bus1=BBT6024643.2.0,bus2=RML210131031.2.0,Phases=1,Linecode=CABBTG02_4_1,Length=0.017000000,Units=km
new line.RML10131032 bus1=BBT11686621.2.3.0,bus2=RML210131032.2.3.0,Phases=2,Linecode=CABBTG05_4_2,Length=0.017000000,Units=km
new line.RML10131097 bus1=BBT138112970.1.2.0,bus2=RML210131097.1.2.0,Phases=2,Linecode=CABBTG05_4_2,Length=0.017000000,Units=km
new line.RML10131152 bus1=BBT488665.1.0,bus2=RML210131152.1.0,Phases=1,Linecode=CABBTG02_4_1,Length=0.017000000,Units=km
new line.RML10133916 bus1=BBT5958360.1.0,bus2=RML210133916.1.0,Phases=1,Linecode=CABBTG02_4_1,Length=0.017000000,Units=km
new line.RML10187227 bus1=BBT149896386.1.2.0,bus2=RML210187227.1.2.0,Phases=2,Linecode=CABBTG05_4_2,Length=0.017000000,Units=km
new line.RML10187385 bus1=BBT149976312.1.0,bus2=RML210187385.1.0,Phases=1,Linecode=CABBTG02_4_1,Length=0.017000000,Units=km
new line.RML10190199 bus1=BBT138121202.1.0,bus2=RML210190199.1.0,Phases=1,Linecode=CABBTG02_4_1,Length=0.017000000,Units=km
new line.RML10031910 bus1=BBT455338.1.0,bus2=RML210031910.1.0,Phases=1,Linecode=CABBTG02_4_1,Length=0.017000000,Units=km
new line.RML1003193 bus1=BBT549138.2.0,bus2=RML201003193.2.0,Phases=1,Linecode=CABBTG01_4_1,Length=0.017000000,Units=km
new line.RML10032326 bus1=BBT489316.1.2.0,bus2=RML210032326.1.2.0,Phases=2,Linecode=CABBTG05_4_2,Length=0.017000000,Units=km
new line.RML10032369 bus1=BBT138092740.1.0,bus2=RML210032369.1.0,Phases=1,Linecode=CABBTG02_4_1,Length=0.017000000,Units=km
new line.RML10032371 bus1=BBT138092684.1.0,bus2=RML210032371.1.0,Phases=1,Linecode=CABBTG03_4_1,Length=0.017000000,Units=km
new line.RML10032625 bus1=BBT159662016.1.2.0,bus2=RML210032625.1.2.0,Phases=2,Linecode=CABBTG13_4_2,Length=0.017000000,Units=km
new line.RML10032656 bus1=BBT4771790.1.2.0,bus2=RML210032656.1.2.0,Phases=2,Linecode=CABBTG13_4_2,Length=0.017000000,Units=km
new line.RML10032660 bus1=BBT455317.1.0,bus2=RML210032660.1.0,Phases=1,Linecode=CABBTG02_4_1,Length=0.017000000,Units=km
new line.RML10034313 bus1=BBT440876.1.2.0,bus2=RML210034313.1.2.0,Phases=2,Linecode=CABBTG05_4_2,Length=0.017000000,Units=km
new line.RML10035608 bus1=BBT4872184.2.0,bus2=RML210035608.2.0,Phases=1,Linecode=CABBTG02_4_1,Length=0.017000000,Units=km