new load.3004069935M1 bus1=RML200752376.1.0,Phases=1,kv=0.12,kW=0.62222,pf=0.92,Vminpu=0.92,Vmaxpu=1.5,model=1,daily=RES2_23,status=variable
new load.3004208664M1 bus1=RML200752467.2.0,Phases=1,kv=0.12,kW=1.15108,pf=0.92,Vminpu=0.92,Vmaxpu=1.5,model=1,daily=RES1_6,status=variable
new load.3004353427M1 bus1=RML200752369.1.0,Phases=1,kv=0.12,kW=0.5511,pf=0.92,Vminpu=0.92,Vmaxpu=1.5,model=1,daily=RES2_25,status=variable
new load.3004568069M1 bus1=RML200752285.1.0,Phases=1,kv=0.12,kW=0.05698,pf=0.92,Vminpu=0.92,Vmaxpu=1.5,model=1,daily=RES1_18,status=variable
new load.3004568070M1 bus1=RML200752292.2.0,Phases=1,kv=0.12,kW=0.55284,pf=0.92,Vminpu=0.92,Vmaxpu=1.5,model=1,daily=RES1_23,status=variable
new load.3004840649M1 bus1=RML200752299.2.0,Phases=1,kv=0.12,kW=0.72316,pf=0.92,Vminpu=0.92,Vmaxpu=1.5,model=1,daily=RES1_8,status=variable
new load.3005137163M1 bus1=RML201039376.1.0,Phases=1,kv=0.12,kW=1.1194,pf=0.92,Vminpu=0.92,Vmaxpu=1.5,model=1,daily=RES1_2,status=variable
new load.3004896395M1 bus1=RML200834493.1.0,Phases=1,kv=0.127,kW=0.88626,pf=0.92,Vminpu=0.92,Vmaxpu=1.5,model=1,daily=RES1_13,status=variable
new load.3004481105M1 bus1=RML200834514.1.2.0,Phases=2,kv=0.22,kW=1.25686,pf=0.92,Vminpu=0.92,Vmaxpu=1.5,model=1,daily=RES1_2,status=variable
new load.3003643749M1 bus1=RML200834535.1.0,Phases=1,kv=0.127,kW=0.42048,pf=0.92,Vminpu=0.92,Vmaxpu=1.5,model=1,daily=RES1_1,status=variable
new load.3003773047M1 bus1=RML200715759.2.0,Phases=1,kv=0.127,kW=0.65852,pf=0.92,Vminpu=0.92,Vmaxpu=1.5,model=1,daily=RES2_24,status=variable
new load.3000104132M1 bus1=RML200747238.3.0,Phases=1,kv=0.127,kW=0.69716,pf=0.92,Vminpu=0.92,Vmaxpu=1.5,model=1,daily=RES1_2,status=variable
new load.3000104137M1 bus1=RML200747266.2.0,Phases=1,kv=0.127,kW=0.3942,pf=0.92,Vminpu=0.92,Vmaxpu=1.5,model=1,daily=RES2_22,status=variable
new load.3000104138M1 bus1=RML200747245.1.0,Phases=1,kv=0.127,kW=1.43018,pf=0.92,Vminpu=0.92,Vmaxpu=1.5,model=1,daily=RES1_26,status=variable
new load.3000104140M1 bus1=RML200747322.1.0,Phases=1,kv=0.127,kW=1.7303,pf=0.92,Vminpu=0.92,Vmaxpu=1.5,model=1,daily=COM1_19,status=variable
new load.3000104142M1 bus1=RML200747364.1.0,Phases=1,kv=0.127,kW=0.72828,pf=0.92,Vminpu=0.92,Vmaxpu=1.5,model=1,daily=RES2_1,status=variable
new load.3000104144M1 bus1=RML200747434.2.0,Phases=1,kv=0.127,kW=0.66656,pf=0.92,Vminpu=0.92,Vmaxpu=1.5,model=1,daily=RES2_1,status=variable
new load.3000104145M1 bus1=RML200747413.1.3.0,Phases=2,kv=0.22,kW=4.11684,pf=0.92,Vminpu=0.92,Vmaxpu=1.5,model=1,daily=RES3_8,status=variable
new load.3000104146M1 bus1=RML200747469.3.0,Phases=1,kv=0.127,kW=1.96588,pf=0.92,Vminpu=0.92,Vmaxpu=1.5,model=1,daily=RES3_10,status=variable
new load.3000104148M1 bus1=RML200747455.2.0,Phases=1,kv=0.127,kW=1.90016,pf=0.92,Vminpu=0.92,Vmaxpu=1.5,model=1,daily=RES3_1,status=variable
new load.3000104149M1 bus1=RML200747462.2.0,Phases=1,kv=0.127,kW=0.15842,pf=0.92,Vminpu=0.92,Vmaxpu=1.5,model=1,daily=RES1_19,status=variable
new load.3000104151M1 bus1=RML200747497.1.0,Phases=1,kv=0.127,kW=1.3355,pf=0.92,Vminpu=0.92,Vmaxpu=1.5,model=1,daily=RES1_4,status=variable
new load.3000104152M1 bus1=RML200747490.3.0,Phases=1,kv=0.127,kW=0.7229,pf=0.92,Vminpu=0.92,Vmaxpu=1.5,model=1,daily=RES2_2,status=variable
new load.3000104153M1 bus1=RML200747476.2.0,Phases=1,kv=0.127,kW=0.66232,pf=0.92,Vminpu=0.92,Vmaxpu=1.5,model=1,daily=RES2_16,status=variable
new load.3000104155M1 bus1=RML200747427.1.2.0,Phases=2,kv=0.22,kW=1.2135,pf=0.92,Vminpu=0.92,Vmaxpu=1.5,model=1,daily=RES2_6,status=variable
new load.3000104156M1 bus1=RML200747406.2.0,Phases=1,kv=0.127,kW=0.96572,pf=0.92,Vminpu=0.92,Vmaxpu=1.5,model=1,daily=RES1_3,status=variable
new load.3000104157M1 bus1=RML200747441.3.0,Phases=1,kv=0.127,kW=1.18948,pf=0.92,Vminpu=0.92,Vmaxpu=1.5,model=1,daily=COM2_1,status=variable
new load.3000104158M1 bus1=RML210332758.1.2.3.0,Phases=3,kv=0.22,kW=30.27342,pf=0.92,Vminpu=0.92,Vmaxpu=1.5,model=1,daily=COM4_22,status=variable
new load.3000104159M1 bus1=RML200747231.2.0,Phases=1,kv=0.127,kW=1.13884,pf=0.92,Vminpu=0.92,Vmaxpu=1.5,model=1,daily=RES1_26,status=variable
new load.3000104162M1 bus1=RML200747224.3.0,Phases=1,kv=0.127,kW=0.40874,pf=0.92,Vminpu=0.92,Vmaxpu=1.5,model=1,daily=RES2_5,status=variable
new load.3005048004M1 bus1=RML200721429.3.0,Phases=1,kv=0.127,kW=0.48856,pf=0.92,Vminpu=0.92,Vmaxpu=1.5,model=1,daily=RES1_25,status=variable
new load.3004654946M1 bus1=RML200746251.2.0,Phases=1,kv=0.127,kW=0.64416,pf=0.92,Vminpu=0.92,Vmaxpu=1.5,model=1,daily=RES2_2,status=variable
new load.3003708374M1 bus1=RML200714072.3.0,Phases=1,kv=0.127,kW=0.42222,pf=0.92,Vminpu=0.92,Vmaxpu=1.5,model=1,daily=RES1_2,status=variable
new load.3004161662M1 bus1=RML200752320.2.0,Phases=1,kv=0.12,kW=0.95984,pf=0.92,Vminpu=0.92,Vmaxpu=1.5,model=1,daily=RES1_8,status=variable
new load.3004568071M1 bus1=RML200752621.1.0,Phases=1,kv=0.12,kW=0.55834,pf=0.92,Vminpu=0.92,Vmaxpu=1.5,model=1,daily=RES1_25,status=variable
new load.3004649179M1 bus1=RML200733070.2.0,Phases=1,kv=0.127,kW=0.48676,pf=0.92,Vminpu=0.92,Vmaxpu=1.5,model=1,daily=RES2_26,status=variable
new load.3004296254M1 bus1=RML210301917.1.0,Phases=1,kv=0.127,kW=0.3564,pf=0.92,Vminpu=0.92,Vmaxpu=1.5,model=1,daily=RES1_3,status=variable
new load.3004652927M1 bus1=RML200728177.2.0,Phases=1,kv=0.127,kW=0.91274,pf=0.92,Vminpu=0.92,Vmaxpu=1.5,model=1,daily=RES2_10,status=variable
new load.3005045753M1 bus1=RML209140671.2.0,Phases=1,kv=0.127,kW=0.32528,pf=0.92,Vminpu=0.92,Vmaxpu=1.5,model=1,daily=RES2_6,status=variable
new load.3005186033M1 bus1=RML200728086.3.0,Phases=1,kv=0.127,kW=1.63212,pf=0.92,Vminpu=0.92,Vmaxpu=1.5,model=1,daily=RES2_9,status=variable
new load.3004207486M1 bus1=RML200727596.2.3.0,Phases=2,kv=0.22,kW=0.0266,pf=0.92,Vminpu=0.92,Vmaxpu=1.5,model=1,daily=COM1_1,status=variable
new load.3003988900M1 bus1=RML200728233.1.0,Phases=1,kv=0.127,kW=0.59324,pf=0.92,Vminpu=0.92,Vmaxpu=1.5,model=1,daily=RES1_25,status=variable
new load.3003345323M1 bus1=RML200727708.2.0,Phases=1,kv=0.127,kW=0.53718,pf=0.92,Vminpu=0.92,Vmaxpu=1.5,model=1,daily=RES2_27,status=variable
new load.3003343548M1 bus1=RML200738880.3.0,Phases=1,kv=0.127,kW=0.57728,pf=0.92,Vminpu=0.92,Vmaxpu=1.5,model=1,daily=RES1_16,status=variable
new load.3003773041M1 bus1=RML200715927.1.0,Phases=1,kv=0.12,kW=0.7779,pf=0.92,Vminpu=0.92,Vmaxpu=1.5,model=1,daily=RES1_1,status=variable
new load.3003989774M1 bus1=RML200715801.1.2.0,Phases=2,kv=0.24,kW=0.0798,pf=0.92,Vminpu=0.92,Vmaxpu=1.5,model=1,daily=RES1_20,status=variable
new load.3003989775M1 bus1=RML200716123.2.0,Phases=1,kv=0.12,kW=0.09864,pf=0.92,Vminpu=0.92,Vmaxpu=1.5,model=1,daily=RES1_19,status=variable
new load.3003773048M1 bus1=RML200716046.2.0,Phases=1,kv=0.12,kW=0.4099,pf=0.92,Vminpu=0.92,Vmaxpu=1.5,model=1,daily=RES2_26,status=variable
new load.3004207513M1 bus1=RML200716354.2.0,Phases=1,kv=0.12,kW=0.53024,pf=0.92,Vminpu=0.92,Vmaxpu=1.5,model=1,daily=RES1_2,status=variable
new load.3004158568M1 bus1=RML200715885.2.0,Phases=1,kv=0.12,kW=0.30884,pf=0.92,Vminpu=0.92,Vmaxpu=1.5,model=1,daily=RES1_18,status=variable
new load.3004770166M1 bus1=RML209106336.2.0,Phases=1,kv=0.12,kW=0.47982,pf=0.92,Vminpu=0.92,Vmaxpu=1.5,model=1,daily=RES1_25,status=variable
new load.3005075535M1 bus1=RML200716858.1.3.0,Phases=2,kv=0.22,kW=3.28712,pf=0.92,Vminpu=0.92,Vmaxpu=1.5,model=1,daily=RES2_4,status=variable
new load.3005102507M1 bus1=RML200718258.3.0,Phases=1,kv=0.127,kW=0.02998,pf=0.92,Vminpu=0.92,Vmaxpu=1.5,model=1,daily=RES1_18,status=variable
new load.3004296279M1 bus1=RML200720379.3.0,Phases=1,kv=0.127,kW=0.51664,pf=0.92,Vminpu=0.92,Vmaxpu=1.5,model=1,daily=RES2_26,status=variable
new load.3004070771M1 bus1=RML200717957.2.0,Phases=1,kv=0.127,kW=0.39478,pf=0.92,Vminpu=0.92,Vmaxpu=1.5,model=1,daily=RES2_28,status=variable
new load.3004109380M1 bus1=RML200718153.2.0,Phases=1,kv=0.127,kW=1.02664,pf=0.92,Vminpu=0.92,Vmaxpu=1.5,model=1,daily=RES2_21,status=variable
new load.3004020058M1 bus1=RML200718314.3.0,Phases=1,kv=0.127,kW=0.44356,pf=0.92,Vminpu=0.92,Vmaxpu=1.5,model=1,daily=RES1_23,status=variable
new load.3004065150M1 bus1=RML200718370.3.0,Phases=1,kv=0.127,kW=0.11694,pf=0.92,Vminpu=0.92,Vmaxpu=1.5,model=1,daily=RES1_18,status=variable
new load.3003773042M1 bus1=RML200718076.2.0,Phases=1,kv=0.127,kW=0.55298,pf=0.92,Vminpu=0.92,Vmaxpu=1.5,model=1,daily=RES2_10,status=variable
new load.3003773043M1 bus1=RML200717922.1.3.0,Phases=2,kv=0.22,kW=0.05892,pf=0.92,Vminpu=0.92,Vmaxpu=1.5,model=1,daily=RES1_2,status=variable
new load.3003773028M1 bus1=RML200717831.3.0,Phases=1,kv=0.127,kW=0.57204,pf=0.92,Vminpu=0.92,Vmaxpu=1.5,model=1,daily=RES1_14,status=variable
new load.3003773037M1 bus1=RML200718328.1.2.0,Phases=2,kv=0.22,kW=0.32364,pf=0.92,Vminpu=0.92,Vmaxpu=1.5,model=1,daily=RES1_17,status=variable
new load.3003773039M1 bus1=RML200717943.2.0,Phases=1,kv=0.127,kW=0.39166,pf=0.92,Vminpu=0.92,Vmaxpu=1.5,model=1,daily=RES1_11,status=variable
new load.3003773040M1 bus1=RML200718104.2.3.0,Phases=2,kv=0.22,kW=1.48552,pf=0.92,Vminpu=0.92,Vmaxpu=1.5,model=1,daily=RES2_14,status=variable
new load.3004113793M1 bus1=RML200719434.1.2.3.0,Phases=3,kv=0.22,kW=0.73364,pf=0.92,Vminpu=0.92,Vmaxpu=1.5,model=1,daily=RES2_13,status=variable
new load.3003773031M1 bus1=RML200720400.2.0,Phases=1,kv=0.12,kW=1.4321,pf=0.92,Vminpu=0.92,Vmaxpu=1.5,model=1,daily=RES2_4,status=variable
new load.3003773032M1 bus1=RML200720610.1.0,Phases=1,kv=0.12,kW=0.92982,pf=0.92,Vminpu=0.92,Vmaxpu=1.5,model=1,daily=RES1_17,status=variable
new load.3003773033M1 bus1=RML200720617.1.2.0,Phases=2,kv=0.24,kW=0.64624,pf=0.92,Vminpu=0.92,Vmaxpu=1.5,model=1,daily=RES2_10,status=variable
new load.3003773035M1 bus1=RML200720561.1.0,Phases=1,kv=0.12,kW=1.0254,pf=0.92,Vminpu=0.92,Vmaxpu=1.5,model=1,daily=RES2_17,status=variable
new load.3003773036M1 bus1=RML200720638.1.0,Phases=1,kv=0.12,kW=0.39748,pf=0.92,Vminpu=0.92,Vmaxpu=1.5,model=1,daily=RES2_28,status=variable
new load.3003708772M1 bus1=RML200720652.2.0,Phases=1,kv=0.12,kW=0.3055,pf=0.92,Vminpu=0.92,Vmaxpu=1.5,model=1,daily=RES2_22,status=variable
new load.3003541053M1 bus1=RML200721415.1.2.3.0,Phases=3,kv=0.22,kW=1.2888,pf=0.92,Vminpu=0.92,Vmaxpu=1.5,model=1,daily=COM1_17,status=variable
new load.3003444148M1 bus1=RML200721408.1.3.0,Phases=2,kv=0.22,kW=1.13556,pf=0.92,Vminpu=0.92,Vmaxpu=1.5,model=1,daily=COM1_26,status=variable
new load.3004297370M1 bus1=RML200722780.1.0,Phases=1,kv=0.12,kW=2.36442,pf=0.92,Vminpu=0.92,Vmaxpu=1.5,model=1,daily=RES2_4,status=variable
new load.3003773022M1 bus1=RML200722570.2.0,Phases=1,kv=0.12,kW=0.76118,pf=0.92,Vminpu=0.92,Vmaxpu=1.5,model=1,daily=RES2_9,status=variable
new load.3003773023M1 bus1=RML200722598.1.0,Phases=1,kv=0.12,kW=0.41096,pf=0.92,Vminpu=0.92,Vmaxpu=1.5,model=1,daily=RES1_17,status=variable
new load.3003773029M1 bus1=RML200722507.1.0,Phases=1,kv=0.12,kW=1.30844,pf=0.92,Vminpu=0.92,Vmaxpu=1.5,model=1,daily=RES3_4,status=variable
new load.3003773030M1 bus1=RML200722521.1.0,Phases=1,kv=0.12,kW=1.25788,pf=0.92,Vminpu=0.92,Vmaxpu=1.5,model=1,daily=RES1_6,status=variable
new load.3003773044M1 bus1=RML200715626.1.0,Phases=1,kv=0.127,kW=0.88712,pf=0.92,Vminpu=0.92,Vmaxpu=1.5,model=1,daily=RES1_23,status=variable
new load.3005105800M1 bus1=RML200722976.2.0,Phases=1,kv=0.127,kW=0.23988,pf=0.92,Vminpu=0.92,Vmaxpu=1.5,model=1,daily=RES1_18,status=variable
new load.3004267048M1 bus1=RML200724992.1.2.3.0,Phases=3,kv=0.22,kW=0.62768,pf=0.92,Vminpu=0.92,Vmaxpu=1.5,model=1,daily=COM1_4,status=variable
new load.3004649672M1 bus1=RML200726406.1.2.3.0,Phases=3,kv=0.22,kW=0.07582,pf=0.92,Vminpu=0.92,Vmaxpu=1.5,model=1,daily=COM1_5,status=variable
new load.3005140081M1 bus1=RML200726462.2.0,Phases=1,kv=0.127,kW=0.59402,pf=0.92,Vminpu=0.92,Vmaxpu=1.5,model=1,daily=COM2_15,status=variable
new load.3004929159M1 bus1=RML200726406.1.2.3.0,Phases=3,kv=0.22,kW=0.19018,pf=0.92,Vminpu=0.92,Vmaxpu=1.5,model=1,daily=COM1_19,status=variable
new load.3000819340M1 bus1=RML200726721.1.2.3.0,Phases=3,kv=0.22,kW=1.37802,pf=0.92,Vminpu=0.92,Vmaxpu=1.5,model=1,daily=RES3_12,status=variable
new load.3000819341M1 bus1=RML200726714.1.2.0,Phases=2,kv=0.22,kW=0.472,pf=0.92,Vminpu=0.92,Vmaxpu=1.5,model=1,daily=RES1_11,status=variable
new load.3000819342M1 bus1=RML200726700.1.2.3.0,Phases=3,kv=0.22,kW=2.5471,pf=0.92,Vminpu=0.92,Vmaxpu=1.5,model=1,daily=RES4_17,status=variable
new load.3000819343M1 bus1=RML200726672.3.0,Phases=1,kv=0.127,kW=0.41782,pf=0.92,Vminpu=0.92,Vmaxpu=1.5,model=1,daily=COM1_4,status=variable
new load.3000819348M1 bus1=RML200726693.1.0,Phases=1,kv=0.127,kW=0.63232,pf=0.92,Vminpu=0.92,Vmaxpu=1.5,model=1,daily=RES1_3,status=variable
new load.3000819351M1 bus1=RML200726707.1.3.0,Phases=2,kv=0.22,kW=1.74132,pf=0.92,Vminpu=0.92,Vmaxpu=1.5,model=1,daily=RES2_5,status=variable
new load.3000819353M1 bus1=RML200731201.1.2.0,Phases=2,kv=0.22,kW=0.32678,pf=0.92,Vminpu=0.92,Vmaxpu=1.5,model=1,daily=COM1_5,status=variable
new load.3000819359M1 bus1=RML200726630.3.0,Phases=1,kv=0.127,kW=0.11764,pf=0.92,Vminpu=0.92,Vmaxpu=1.5,model=1,daily=COM1_5,status=variable
new load.3000819363M1 bus1=RML200726686.2.3.0,Phases=2,kv=0.22,kW=0.0763,pf=0.92,Vminpu=0.92,Vmaxpu=1.5,model=1,daily=COM1_21,status=variable
new load.3000819365M1 bus1=RML200726588.2.0,Phases=1,kv=0.127,kW=2.40822,pf=0.92,Vminpu=0.92,Vmaxpu=1.5,model=1,daily=COM1_18,status=variable
new load.3000819366M1 bus1=RML200726588.2.0,Phases=1,kv=0.127,kW=0.0808,pf=0.92,Vminpu=0.92,Vmaxpu=1.5,model=1,daily=COM1_10,status=variable
new load.3000819367M1 bus1=RML200726532.3.0,Phases=1,kv=0.127,kW=0.1417,pf=0.92,Vminpu=0.92,Vmaxpu=1.5,model=1,daily=COM1_19,status=variable
new load.3000819370M1 bus1=RML200726406.1.2.3.0,Phases=3,kv=0.22,kW=0.18462,pf=0.92,Vminpu=0.92,Vmaxpu=1.5,model=1,daily=COM1_4,status=variable
new load.3000819373M1 bus1=RML200726448.1.0,Phases=1,kv=0.127,kW=8.739,pf=0.92,Vminpu=0.92,Vmaxpu=1.5,model=1,daily=COM2_4,status=variable
new load.3000819377M1 bus1=RML200726371.1.0,Phases=1,kv=0.127,kW=0.55486,pf=0.92,Vminpu=0.92,Vmaxpu=1.5,model=1,daily=COM1_18,status=variable
new load.3000819380M1 bus1=RML200726350.3.0,Phases=1,kv=0.127,kW=0.66566,pf=0.92,Vminpu=0.92,Vmaxpu=1.5,model=1,daily=COM1_20,status=variable
new load.3000819385M1 bus1=RML200726413.1.0,Phases=1,kv=0.127,kW=0.65622,pf=0.92,Vminpu=0.92,Vmaxpu=1.5,model=1,daily=COM1_21,status=variable
new load.3000819387M1 bus1=RML200726469.2.0,Phases=1,kv=0.127,kW=0.7676,pf=0.92,Vminpu=0.92,Vmaxpu=1.5,model=1,daily=COM1_4,status=variable
new load.3000819388M1 bus1=RML200726490.1.0,Phases=1,kv=0.127,kW=0.96906,pf=0.92,Vminpu=0.92,Vmaxpu=1.5,model=1,daily=COM1_21,status=variable
new load.3000819391M1 bus1=RML204939223.3.0,Phases=1,kv=0.127,kW=0.00972,pf=0.92,Vminpu=0.92,Vmaxpu=1.5,model=1,daily=COM1_4,status=variable
new load.3000819392M1 bus1=RML200726504.1.0,Phases=1,kv=0.127,kW=0.28598,pf=0.92,Vminpu=0.92,Vmaxpu=1.5,model=1,daily=COM1_20,status=variable
new load.3000819395M1 bus1=RML200726595.3.0,Phases=1,kv=0.127,kW=1.45512,pf=0.92,Vminpu=0.92,Vmaxpu=1.5,model=1,daily=COM2_1,status=variable
new load.3000819398M1 bus1=RML200726623.1.0,Phases=1,kv=0.127,kW=0.32464,pf=0.92,Vminpu=0.92,Vmaxpu=1.5,model=1,daily=COM1_13,status=variable
new load.3000819400M1 bus1=RML200726602.3.0,Phases=1,kv=0.127,kW=0.99004,pf=0.92,Vminpu=0.92,Vmaxpu=1.5,model=1,daily=COM2_2,status=variable
new load.3000819402M1 bus1=RML200726539.1.0,Phases=1,kv=0.127,kW=0.5813,pf=0.92,Vminpu=0.92,Vmaxpu=1.5,model=1,daily=COM1_11,status=variable
new load.3000819403M1 bus1=RML200726581.1.0,Phases=1,kv=0.127,kW=3.9433,pf=0.92,Vminpu=0.92,Vmaxpu=1.5,model=1,daily=COM2_12,status=variable
new load.3000819404M1 bus1=RML200726567.2.0,Phases=1,kv=0.127,kW=1.46308,pf=0.92,Vminpu=0.92,Vmaxpu=1.5,model=1,daily=RES1_2,status=variable
new load.3000819405M1 bus1=RML200726574.3.0,Phases=1,kv=0.127,kW=0.14908,pf=0.92,Vminpu=0.92,Vmaxpu=1.5,model=1,daily=COM1_7,status=variable
new load.3000819406M1 bus1=RML200726567.2.0,Phases=1,kv=0.127,kW=0.78678,pf=0.92,Vminpu=0.92,Vmaxpu=1.5,model=1,daily=COM1_10,status=variable
new load.3000819407M1 bus1=RML200726560.1.0,Phases=1,kv=0.127,kW=1.20498,pf=0.92,Vminpu=0.92,Vmaxpu=1.5,model=1,daily=COM1_12,status=variable
new load.3000819408M1 bus1=RML200726553.1.0,Phases=1,kv=0.127,kW=0.53948,pf=0.92,Vminpu=0.92,Vmaxpu=1.5,model=1,daily=COM1_11,status=variable
new load.3000819409M1 bus1=RML200726546.2.0,Phases=1,kv=0.127,kW=2.21918,pf=0.92,Vminpu=0.92,Vmaxpu=1.5,model=1,daily=COM1_12,status=variable
new load.3004898852M1 bus1=RML209105902.3.0,Phases=1,kv=0.127,kW=0.59098,pf=0.92,Vminpu=0.92,Vmaxpu=1.5,model=1,daily=RES2_24,status=variable
new load.3003987027M1 bus1=RML200722829.2.0,Phases=1,kv=0.127,kW=0.34782,pf=0.92,Vminpu=0.92,Vmaxpu=1.5,model=1,daily=RES1_18,status=variable
new load.3003985455M1 bus1=RML200727904.3.0,Phases=1,kv=0.127,kW=0.61132,pf=0.92,Vminpu=0.92,Vmaxpu=1.5,model=1,daily=RES1_17,status=variable
new load.3003773050M1 bus1=RML200722731.1.0,Phases=1,kv=0.127,kW=0.34142,pf=0.92,Vminpu=0.92,Vmaxpu=1.5,model=1,daily=RES2_27,status=variable
new load.3000819378M1 bus1=RML200728520.1.2.3.0,Phases=3,kv=0.22,kW=2.70816,pf=0.92,Vminpu=0.92,Vmaxpu=1.5,model=1,daily=IND1_10,status=variable
new load.3000819379M1 bus1=RML200728520.1.2.3.0,Phases=3,kv=0.22,kW=0.67892,pf=0.92,Vminpu=0.92,Vmaxpu=1.5,model=1,daily=RES2_1,status=variable
new load.3000819332M1 bus1=RML200731439.2.3.0,Phases=2,kv=0.22,kW=0.30014,pf=0.92,Vminpu=0.92,Vmaxpu=1.5,model=1,daily=RES2_28,status=variable
new load.3003343543M1 bus1=RML200729283.1.3.0,Phases=2,kv=0.22,kW=1.32412,pf=0.92,Vminpu=0.92,Vmaxpu=1.5,model=1,daily=RES2_2,status=variable
new load.3005185221M1 bus1=RML200728933.3.0,Phases=1,kv=0.127,kW=0.29086,pf=0.92,Vminpu=0.92,Vmaxpu=1.5,model=1,daily=COM1_19,status=variable
new load.3005185980M1 bus1=RML200729717.1.2.3.0,Phases=3,kv=0.22,kW=0.02158,pf=0.92,Vminpu=0.92,Vmaxpu=1.5,model=1,daily=RES1_14,status=variable
new load.3003343547M1 bus1=RML200729780.2.3.0,Phases=2,kv=0.22,kW=0.55714,pf=0.92,Vminpu=0.92,Vmaxpu=1.5,model=1,daily=RES1_1,status=variable
new load.3003499300M1 bus1=RML200729976.2.0,Phases=1,kv=0.127,kW=0.18576,pf=0.92,Vminpu=0.92,Vmaxpu=1.5,model=1,daily=COM1_12,status=variable
new load.3003708239M1 bus1=RML200731138.1.2.3.0,Phases=3,kv=0.22,kW=0.30206,pf=0.92,Vminpu=0.92,Vmaxpu=1.5,model=1,daily=COM1_19,status=variable
new load.3000819333M1 bus1=RML200731488.2.0,Phases=1,kv=0.127,kW=0.88876,pf=0.92,Vminpu=0.92,Vmaxpu=1.5,model=1,daily=RES2_1,status=variable
new load.3000819336M1 bus1=RML200731467.3.0,Phases=1,kv=0.127,kW=1.12804,pf=0.92,Vminpu=0.92,Vmaxpu=1.5,model=1,daily=RES1_7,status=variable
new load.3000819337M1 bus1=RML200731460.2.0,Phases=1,kv=0.127,kW=1.00664,pf=0.92,Vminpu=0.92,Vmaxpu=1.5,model=1,daily=COM1_25,status=variable
new load.3000819338M1 bus1=RML200731453.1.2.3.0,Phases=3,kv=0.22,kW=0.85352,pf=0.92,Vminpu=0.92,Vmaxpu=1.5,model=1,daily=COM1_12,status=variable
new load.3000819311M1 bus1=RML200731656.1.2.3.0,Phases=3,kv=0.22,kW=0.95422,pf=0.92,Vminpu=0.92,Vmaxpu=1.5,model=1,daily=RES1_3,status=variable
new load.3000819312M1 bus1=RML200731579.1.0,Phases=1,kv=0.127,kW=1.91568,pf=0.92,Vminpu=0.92,Vmaxpu=1.5,model=1,daily=RES3_3,status=variable
new load.3000819315M1 bus1=RML200731558.1.2.3.0,Phases=3,kv=0.22,kW=0.71498,pf=0.92,Vminpu=0.92,Vmaxpu=1.5,model=1,daily=COM1_20,status=variable
new load.3000819316M1 bus1=RML200731635.3.0,Phases=1,kv=0.127,kW=0.49408,pf=0.92,Vminpu=0.92,Vmaxpu=1.5,model=1,daily=RES1_1,status=variable
new load.3000819317M1 bus1=RML200731628.1.2.0,Phases=2,kv=0.22,kW=0.22568,pf=0.92,Vminpu=0.92,Vmaxpu=1.5,model=1,daily=COM1_25,status=variable
new load.3000819318M1 bus1=RML200731621.2.0,Phases=1,kv=0.127,kW=0.48114,pf=0.92,Vminpu=0.92,Vmaxpu=1.5,model=1,daily=RES1_2,status=variable
new load.3000819321M1 bus1=RML200731614.1.0,Phases=1,kv=0.127,kW=1.25866,pf=0.92,Vminpu=0.92,Vmaxpu=1.5,model=1,daily=RES2_20,status=variable
new load.3000819322M1 bus1=RML200731600.3.0,Phases=1,kv=0.127,kW=0.45672,pf=0.92,Vminpu=0.92,Vmaxpu=1.5,model=1,daily=RES2_1,status=variable
new load.3000819323M1 bus1=RML200731607.1.2.3.0,Phases=3,kv=0.22,kW=1.90222,pf=0.92,Vminpu=0.92,Vmaxpu=1.5,model=1,daily=COM1_14,status=variable
new load.3000819324M1 bus1=RML200731551.1.0,Phases=1,kv=0.127,kW=0.94288,pf=0.92,Vminpu=0.92,Vmaxpu=1.5,model=1,daily=RES2_16,status=variable
new load.3000819326M1 bus1=RML200731544.1.0,Phases=1,kv=0.127,kW=0.71164,pf=0.92,Vminpu=0.92,Vmaxpu=1.5,model=1,daily=RES1_24,status=variable
new load.3000819327M1 bus1=RML200731537.2.0,Phases=1,kv=0.127,kW=2.49064,pf=0.92,Vminpu=0.92,Vmaxpu=1.5,model=1,daily=RES3_15,status=variable
new load.3000819328M1 bus1=RML200731523.1.2.3.0,Phases=3,kv=0.22,kW=1.20778,pf=0.92,Vminpu=0.92,Vmaxpu=1.5,model=1,daily=RES1_2,status=variable
new load.3000819330M1 bus1=RML200731509.1.0,Phases=1,kv=0.127,kW=1.77852,pf=0.92,Vminpu=0.92,Vmaxpu=1.5,model=1,daily=RES2_11,status=variable
new load.3000819331M1 bus1=RML200731495.3.0,Phases=1,kv=0.127,kW=0.09596,pf=0.92,Vminpu=0.92,Vmaxpu=1.5,model=1,daily=RES1_18,status=variable
new load.3003638997M1 bus1=RML200731901.1.0,Phases=1,kv=0.127,kW=0.08396,pf=0.92,Vminpu=0.92,Vmaxpu=1.5,model=1,daily=RES1_16,status=variable
new load.3003345322M1 bus1=RML200731992.3.0,Phases=1,kv=0.127,kW=1.22602,pf=0.92,Vminpu=0.92,Vmaxpu=1.5,model=1,daily=RES2_6,status=variable
new load.3003398255M1 bus1=RML200732104.1.0,Phases=1,kv=0.127,kW=0.26356,pf=0.92,Vminpu=0.92,Vmaxpu=1.5,model=1,daily=RES1_23,status=variable
new load.3004159452M1 bus1=RML200732069.3.0,Phases=1,kv=0.127,kW=0.6764,pf=0.92,Vminpu=0.92,Vmaxpu=1.5,model=1,daily=RES1_6,status=variable
new load.3004296255M1 bus1=RML200731852.1.0,Phases=1,kv=0.127,kW=0.67754,pf=0.92,Vminpu=0.92,Vmaxpu=1.5,model=1,daily=RES1_2,status=variable
new load.3000104364M1 bus1=RML200734169.1.2.0,Phases=2,kv=0.22,kW=0.82866,pf=0.92,Vminpu=0.92,Vmaxpu=1.5,model=1,daily=RES2_5,status=variable
new load.3000104377M1 bus1=RML200734582.1.2.3.0,Phases=3,kv=0.22,kW=1.40626,pf=0.92,Vminpu=0.92,Vmaxpu=1.5,model=1,daily=RES6_2,status=variable
new load.3000104362M1 bus1=RML200734155.2.3.0,Phases=2,kv=0.22,kW=0.4124,pf=0.92,Vminpu=0.92,Vmaxpu=1.5,model=1,daily=RES1_2,status=variable
new load.3000104363M1 bus1=RML200734162.1.2.0,Phases=2,kv=0.22,kW=3.25116,pf=0.92,Vminpu=0.92,Vmaxpu=1.5,model=1,daily=COM1_22,status=variable
new load.3005081190M1 bus1=RML200734652.1.0,Phases=1,kv=0.127,kW=1.09242,pf=0.92,Vminpu=0.92,Vmaxpu=1.5,model=1,daily=RES2_1,status=variable
new load.3003398254M1 bus1=RML200734792.2.0,Phases=1,kv=0.127,kW=0.80878,pf=0.92,Vminpu=0.92,Vmaxpu=1.5,model=1,daily=RES2_2,status=variable
new load.3003499298M1 bus1=RML200735751.1.2.3.0,Phases=3,kv=0.22,kW=1.7764,pf=0.92,Vminpu=0.92,Vmaxpu=1.5,model=1,daily=RES5_16,status=variable
new load.3000103955M1 bus1=RML200736220.3.0,Phases=1,kv=0.127,kW=0.87252,pf=0.92,Vminpu=0.92,Vmaxpu=1.5,model=1,daily=RES1_1,status=variable
new load.3000103956M1 bus1=RML200736213.1.0,Phases=1,kv=0.127,kW=1.1248,pf=0.92,Vminpu=0.92,Vmaxpu=1.5,model=1,daily=RES1_1,status=variable
new load.3000103957M1 bus1=RML200736206.2.0,Phases=1,kv=0.127,kW=0.51844,pf=0.92,Vminpu=0.92,Vmaxpu=1.5,model=1,daily=RES2_1,status=variable
new load.3000103959M1 bus1=RML200736276.1.2.0,Phases=2,kv=0.22,kW=0.81346,pf=0.92,Vminpu=0.92,Vmaxpu=1.5,model=1,daily=RES1_11,status=variable
new load.3000103960M1 bus1=RML200736353.1.2.3.0,Phases=3,kv=0.22,kW=9.22274,pf=0.92,Vminpu=0.92,Vmaxpu=1.5,model=1,daily=COM3_24,status=variable
new load.3000103962M1 bus1=RML200736339.2.0,Phases=1,kv=0.127,kW=0.69592,pf=0.92,Vminpu=0.92,Vmaxpu=1.5,model=1,daily=RES2_18,status=variable
new load.3000103963M1 bus1=RML200736346.2.0,Phases=1,kv=0.127,kW=1.62018,pf=0.92,Vminpu=0.92,Vmaxpu=1.5,model=1,daily=RES1_2,status=variable
new load.3000103964M1 bus1=RML200736479.2.0,Phases=1,kv=0.127,kW=0.63984,pf=0.92,Vminpu=0.92,Vmaxpu=1.5,model=1,daily=RES2_11,status=variable
new load.3000104374M1 bus1=RML200736297.2.3.0,Phases=2,kv=0.22,kW=0.6701,pf=0.92,Vminpu=0.92,Vmaxpu=1.5,model=1,daily=COM1_14,status=variable
new load.3000104376M1 bus1=RML200736227.2.0,Phases=1,kv=0.127,kW=0.96232,pf=0.92,Vminpu=0.92,Vmaxpu=1.5,model=1,daily=RES2_14,status=variable
new load.3004896920M1 bus1=RML200736829.3.0,Phases=1,kv=0.127,kW=0.98494,pf=0.92,Vminpu=0.92,Vmaxpu=1.5,model=1,daily=RES1_6,status=variable
new load.3000104366M1 bus1=RML200737459.1.2.3.0,Phases=3,kv=0.22,kW=0.32678,pf=0.92,Vminpu=0.92,Vmaxpu=1.5,model=1,daily=COM1_5,status=variable
new load.3000104367M1 bus1=RML200737508.2.0,Phases=1,kv=0.127,kW=0.59784,pf=0.92,Vminpu=0.92,Vmaxpu=1.5,model=1,daily=RES1_23,status=variable
new load.3000104368M1 bus1=RML200737487.3.0,Phases=1,kv=0.127,kW=1.16126,pf=0.92,Vminpu=0.92,Vmaxpu=1.5,model=1,daily=RES3_5,status=variable
new load.3000104369M1 bus1=RML200737480.1.2.3.0,Phases=3,kv=0.22,kW=0.38956,pf=0.92,Vminpu=0.92,Vmaxpu=1.5,model=1,daily=RES3_14,status=variable
new load.3000104371M1 bus1=RML200737494.1.0,Phases=1,kv=0.127,kW=0.63112,pf=0.92,Vminpu=0.92,Vmaxpu=1.5,model=1,daily=RES1_8,status=variable
new load.3000104372M1 bus1=RML200737466.1.0,Phases=1,kv=0.127,kW=0.45192,pf=0.92,Vminpu=0.92,Vmaxpu=1.5,model=1,daily=RES1_11,status=variable
new load.3000104373M1 bus1=RML200736304.1.0,Phases=1,kv=0.127,kW=1.12502,pf=0.92,Vminpu=0.92,Vmaxpu=1.5,model=1,daily=RES3_4,status=variable
new load.3000104348M1 bus1=RML200740056.1.2.0,Phases=2,kv=0.22,kW=1.35172,pf=0.92,Vminpu=0.92,Vmaxpu=1.5,model=1,daily=RES3_16,status=variable
new load.3000104349M1 bus1=RML200737606.1.3.0,Phases=2,kv=0.22,kW=0.62844,pf=0.92,Vminpu=0.92,Vmaxpu=1.5,model=1,daily=RES1_2,status=variable
new load.3000104351M1 bus1=RML200737613.1.0,Phases=1,kv=0.127,kW=0.48944,pf=0.92,Vminpu=0.92,Vmaxpu=1.5,model=1,daily=RES2_27,status=variable
new load.3000104352M1 bus1=RML200737620.1.2.0,Phases=2,kv=0.22,kW=1.11444,pf=0.92,Vminpu=0.92,Vmaxpu=1.5,model=1,daily=RES2_24,status=variable
new load.3000104353M1 bus1=RML200737627.3.0,Phases=1,kv=0.127,kW=1.12922,pf=0.92,Vminpu=0.92,Vmaxpu=1.5,model=1,daily=RES1_2,status=variable
new load.3000104356M1 bus1=RML200737550.3.0,Phases=1,kv=0.127,kW=1.11422,pf=0.92,Vminpu=0.92,Vmaxpu=1.5,model=1,daily=RES2_5,status=variable
new load.3000104357M1 bus1=RML200737543.3.0,Phases=1,kv=0.127,kW=1.15728,pf=0.92,Vminpu=0.92,Vmaxpu=1.5,model=1,daily=RES2_20,status=variable
new load.3000104358M1 bus1=RML200737578.3.0,Phases=1,kv=0.127,kW=1.18812,pf=0.92,Vminpu=0.92,Vmaxpu=1.5,model=1,daily=RES2_2,status=variable
new load.3000104359M1 bus1=RML200737501.1.2.3.0,Phases=3,kv=0.22,kW=0.64382,pf=0.92,Vminpu=0.92,Vmaxpu=1.5,model=1,daily=RES1_3,status=variable
new load.3000104360M1 bus1=RML200737515.3.0,Phases=1,kv=0.127,kW=0.19864,pf=0.92,Vminpu=0.92,Vmaxpu=1.5,model=1,daily=RES1_26,status=variable
new load.3000104361M1 bus1=RML200737452.2.0,Phases=1,kv=0.127,kW=0.88308,pf=0.92,Vminpu=0.92,Vmaxpu=1.5,model=1,daily=RES1_9,status=variable
new load.3000103965M1 bus1=RML200737536.1.0,Phases=1,kv=0.127,kW=0.62102,pf=0.92,Vminpu=0.92,Vmaxpu=1.5,model=1,daily=RES2_17,status=variable
new load.3000103966M1 bus1=RML200737522.1.2.3.0,Phases=3,kv=0.22,kW=1.30716,pf=0.92,Vminpu=0.92,Vmaxpu=1.5,model=1,daily=RES2_4,status=variable
new load.3000103968M1 bus1=RML200737571.3.0,Phases=1,kv=0.127,kW=1.06964,pf=0.92,Vminpu=0.92,Vmaxpu=1.5,model=1,daily=RES2_6,status=variable
new load.3000103969M1 bus1=RML200737585.1.2.0,Phases=2,kv=0.22,kW=1.4037,pf=0.92,Vminpu=0.92,Vmaxpu=1.5,model=1,daily=RES3_15,status=variable
new load.3000103970M1 bus1=RML200737634.1.2.3.0,Phases=3,kv=0.22,kW=2.99876,pf=0.92,Vminpu=0.92,Vmaxpu=1.5,model=1,daily=COM1_24,status=variable
new load.3000103971M1 bus1=RML200737641.1.2.3.0,Phases=3,kv=0.22,kW=12.39986,pf=0.92,Vminpu=0.92,Vmaxpu=1.5,model=1,daily=IND2_15,status=variable
new load.3000103972M1 bus1=RML200737739.2.0,Phases=1,kv=0.127,kW=0.53696,pf=0.92,Vminpu=0.92,Vmaxpu=1.5,model=1,daily=RES2_1,status=variable
new load.3000103973M1 bus1=RML200737648.3.0,Phases=1,kv=0.127,kW=0.31096,pf=0.92,Vminpu=0.92,Vmaxpu=1.5,model=1,daily=RES2_28,status=variable
new load.3000103974M1 bus1=RML200737655.2.0,Phases=1,kv=0.127,kW=1.43584,pf=0.92,Vminpu=0.92,Vmaxpu=1.5,model=1,daily=RES3_20,status=variable
new load.3000103975M1 bus1=RML200737662.1.0,Phases=1,kv=0.127,kW=0.35072,pf=0.92,Vminpu=0.92,Vmaxpu=1.5,model=1,daily=RES2_2,status=variable
new load.3000103976M1 bus1=RML200737669.1.0,Phases=1,kv=0.127,kW=0.47984,pf=0.92,Vminpu=0.92,Vmaxpu=1.5,model=1,daily=RES3_19,status=variable
new load.3000103977M1 bus1=RML200737676.2.0,Phases=1,kv=0.127,kW=1.06872,pf=0.92,Vminpu=0.92,Vmaxpu=1.5,model=1,daily=RES3_11,status=variable
new load.3000103978M1 bus1=RML200737592.1.0,Phases=1,kv=0.127,kW=0.44572,pf=0.92,Vminpu=0.92,Vmaxpu=1.5,model=1,daily=RES1_10,status=variable
new load.3000103979M1 bus1=RML200737564.1.2.3.0,Phases=3,kv=0.22,kW=2.78512,pf=0.92,Vminpu=0.92,Vmaxpu=1.5,model=1,daily=RES4_10,status=variable
new load.3000103980M1 bus1=RML200737704.1.0,Phases=1,kv=0.127,kW=1.08422,pf=0.92,Vminpu=0.92,Vmaxpu=1.5,model=1,daily=RES4_19,status=variable
new load.3000103981M1 bus1=RML200737697.1.0,Phases=1,kv=0.127,kW=1.13416,pf=0.92,Vminpu=0.92,Vmaxpu=1.5,model=1,daily=RES2_4,status=variable
new load.3000103982M1 bus1=RML200737725.3.0,Phases=1,kv=0.127,kW=0.7531,pf=0.92,Vminpu=0.92,Vmaxpu=1.5,model=1,daily=RES1_5,status=variable
new load.3000103983M1 bus1=RML200737718.3.0,Phases=1,kv=0.127,kW=0.79102,pf=0.92,Vminpu=0.92,Vmaxpu=1.5,model=1,daily=RES3_13,status=variable
new load.3000103984M1 bus1=RML200737690.2.3.0,Phases=2,kv=0.22,kW=1.66342,pf=0.92,Vminpu=0.92,Vmaxpu=1.5,model=1,daily=RES1_15,status=variable
new load.3000103987M1 bus1=RML200737753.3.0,Phases=1,kv=0.127,kW=2.52326,pf=0.92,Vminpu=0.92,Vmaxpu=1.5,model=1,daily=RES5_14,status=variable