new line.TR10037532 bus1=BMT6048128B.3,bus2=BMT6048142B.3,Phases=1,Linecode=CAB202_3_1,Length=0.150331000,Units=km
new line.TR10037539 bus1=BMT6048135B.3,bus2=BMT6048128B.3,Phases=1,Linecode=CAB202_3_1,Length=0.038833000,Units=km
new line.TR10037546 bus1=BMT6048142B.3,bus2=BMT6048149B.3,Phases=1,Linecode=CAB202_3_1,Length=0.113357000,Units=km
new line.TR10037553 bus1=BMT6048149B.3,bus2=BMT6048156B.3,Phases=1,Linecode=CAB202_3_1,Length=0.114038000,Units=km
new line.TR10037560 bus1=BMT6048156B.3,bus2=BMT6048163B.3,Phases=1,Linecode=CAB202_3_1,Length=0.091525000,Units=km
new line.TR10037567 bus1=BMT6048163B.3,bus2=BMT6048170B.3,Phases=1,Linecode=CAB202_3_1,Length=0.094153000,Units=km
new line.TR10037574 bus1=BMT6048170B.3,bus2=BMT6048177B.3,Phases=1,Linecode=CAB202_3_1,Length=0.272620000,Units=km
new line.TR10037581 bus1=BMT6048177B.3,bus2=BMT6048184B.3,Phases=1,Linecode=CAB202_3_1,Length=0.081608000,Units=km
new line.TR10037588 bus1=BMT6048184B.3,bus2=BMT6048191B.3,Phases=1,Linecode=CAB202_3_1,Length=0.471330000,Units=km
new line.TR10037595 bus1=BMT6048191B.3,bus2=BMT98436277.3,Phases=1,Linecode=CAB202_3_1,Length=0.084290000,Units=km
new line.TR10037602 bus1=BMT98436277.3,bus2=BMT6048205B.3,Phases=1,Linecode=CAB202_3_1,Length=0.099823000,Units=km
new line.TR10037609 bus1=BMT98436277.3,bus2=BMT98436291.3,Phases=1,Linecode=CAB202_3_1,Length=0.208661000,Units=km
new line.TR10037616 bus1=BMT6048205B.3,bus2=BMT6048219B.3,Phases=1,Linecode=CAB202_3_1,Length=0.519701000,Units=km
new line.TR10037623 bus1=BMT6048219B.3,bus2=BMT6048240B.3,Phases=1,Linecode=CAB202_3_1,Length=0.031145000,Units=km
new line.TR10037644 bus1=BMT6048240B.3,bus2=BMT6048247B.3,Phases=1,Linecode=CAB202_3_1,Length=0.041036000,Units=km
new line.TR10037651 bus1=BMT6048247B.3,bus2=BMT6048254B.3,Phases=1,Linecode=CAB202_3_1,Length=0.524257000,Units=km
new line.TR10037658 bus1=BMT6048254B.3,bus2=BMT98436284.3,Phases=1,Linecode=CAB202_3_1,Length=0.018601000,Units=km
new line.TR10037665 bus1=BMT98436284.3,bus2=BMT98436298.3,Phases=1,Linecode=CAB202_3_1,Length=0.268399000,Units=km
new line.TR10037672 bus1=BMT98436389.3,bus2=BMT98436396.3,Phases=1,Linecode=CAB202_3_1,Length=0.433766000,Units=km
new line.TR10037679 bus1=BMT98436361.3,bus2=BMT98436368.3,Phases=1,Linecode=CAB202_3_1,Length=0.057870000,Units=km
new line.TR10037686 bus1=BMT98436298.3,bus2=BMT98436305.3,Phases=1,Linecode=CAB202_3_1,Length=0.123743000,Units=km
new line.TR10038568 bus1=BMT98436368.3,bus2=BMT98436375.3,Phases=1,Linecode=CAB103_3_1,Length=0.052344000,Units=km
new line.TR10038575 bus1=BMT98436368.3,bus2=BMT98436382.3,Phases=1,Linecode=CAB202_3_1,Length=0.135555000,Units=km
new line.TR10038883 bus1=BMT98436305.3,bus2=BMT6049899B.3,Phases=1,Linecode=CAB202_3_1,Length=0.182999000,Units=km
new line.TR10038890 bus1=BMT98436305.3,bus2=BMT98436319.3,Phases=1,Linecode=CAB202_3_1,Length=0.183610000,Units=km
new line.TR10038897 bus1=BMT6049899B.3,bus2=BMT98436312.3,Phases=1,Linecode=CAB202_3_1,Length=0.096253000,Units=km
new line.TR10038904 bus1=BMT98436333.3,bus2=BMT6049913B.3,Phases=1,Linecode=CAB202_3_1,Length=0.141419000,Units=km
new line.TR10038911 bus1=BMT98436312.3,bus2=BMT6049976B.3,Phases=1,Linecode=CAB202_3_1,Length=0.314243000,Units=km
new line.TR10038918 bus1=BMT6049913B.3,bus2=BMT6049920B.3,Phases=1,Linecode=CAB202_3_1,Length=0.154868000,Units=km
new line.TR10038925 bus1=BMT6049920B.3,bus2=BMT6050011B.3,Phases=1,Linecode=CAB202_3_1,Length=0.224887000,Units=km
new line.TR10038932 bus1=BMT6049976B.3,bus2=BMT6049983B.3,Phases=1,Linecode=CAB202_3_1,Length=0.047707000,Units=km
new line.TR10038939 bus1=BMT6049983B.3,bus2=BMT6049990B.3,Phases=1,Linecode=CAB202_3_1,Length=0.161715000,Units=km
new line.TR10038946 bus1=BMT6049990B.3,bus2=BMT98436326.3,Phases=1,Linecode=CAB202_3_1,Length=0.357486000,Units=km
new line.TR10038960 bus1=BMT6050011B.3,bus2=BMT6050018B.3,Phases=1,Linecode=CAB202_3_1,Length=0.294562000,Units=km
new line.TR10038967 bus1=BMT6050018B.3,bus2=BMT6050025B.3,Phases=1,Linecode=CAB202_3_1,Length=0.132278000,Units=km
new line.TR10038974 bus1=BMT6050025B.3,bus2=BMT6050032B.3,Phases=1,Linecode=CAB202_3_1,Length=0.082606000,Units=km
new line.TR10038981 bus1=BMT6050032B.3,bus2=BMT98436340.3,Phases=1,Linecode=CAB202_3_1,Length=0.038327000,Units=km
new line.TR10039093 bus1=BMT98436340.3,bus2=BMT98436347.3,Phases=1,Linecode=CAB202_3_1,Length=0.253499000,Units=km
new line.TR10039100 bus1=BMT98436340.3,bus2=BMT98436354.3,Phases=1,Linecode=CAB103_3_1,Length=0.041881000,Units=km
new line.TR10039156 bus1=BMT98436396.3,bus2=BMT6050466B.3,Phases=1,Linecode=CAB202_3_1,Length=0.081411000,Units=km
new line.TR10039163 bus1=BMT6050466B.3,bus2=BMT6050480B.3,Phases=1,Linecode=CAB202_3_1,Length=0.084645000,Units=km
new line.TR10039170 bus1=BMT6050480B.3,bus2=BMT98436403.3,Phases=1,Linecode=CAB202_3_1,Length=0.064760000,Units=km
new line.TR10039191 bus1=BMT98436403.3,bus2=BMT6050501B.3,Phases=1,Linecode=CAB202_3_1,Length=0.116925000,Units=km
new line.TR10039198 bus1=BMT98436403.3,bus2=BMT98436424.3,Phases=1,Linecode=CAB103_3_1,Length=0.061187000,Units=km
new line.TR10039205 bus1=BMT6050501B.3,bus2=BMT98436417.3,Phases=1,Linecode=CAB202_3_1,Length=0.085092000,Units=km
new line.TR10050860 bus1=BMT6074637B.1,bus2=BMT6074644B.1,Phases=1,Linecode=CAB202_3_1,Length=0.366716000,Units=km
new line.TR10050867 bus1=BMT6074644B.1,bus2=BMT6074651B.1,Phases=1,Linecode=CAB202_3_1,Length=0.117395000,Units=km
new line.TR10050874 bus1=BMT6074651B.1,bus2=BMT6074658B.1,Phases=1,Linecode=CAB202_3_1,Length=0.224094000,Units=km
new line.TR10050881 bus1=BMT6074658B.1,bus2=BMT6074665B.1,Phases=1,Linecode=CAB202_3_1,Length=0.373295000,Units=km
new line.TR10050888 bus1=BMT6074665B.1,bus2=BMT98431181.1,Phases=1,Linecode=CAB202_3_1,Length=0.317095000,Units=km
new line.TR10050895 bus1=BMT98431181.1,bus2=BMT98431195.1,Phases=1,Linecode=CAB202_3_1,Length=0.089325000,Units=km
new line.TR10050902 bus1=BMT98431181.1,bus2=BMT6496408B.1,Phases=1,Linecode=CAB202_3_1,Length=0.134857000,Units=km
new line.TR10117290 bus1=BMT6204704B.1,bus2=BMT98431188.1,Phases=1,Linecode=CAB202_3_1,Length=0.212940000,Units=km
new line.TR10263576 bus1=BMT161504406.1,bus2=BMT6460876B.1,Phases=1,Linecode=CAB202_3_1,Length=0.116278000,Units=km
new line.TR10263583 bus1=BMT6460876B.1,bus2=BMT161504407.1,Phases=1,Linecode=CAB202_3_1,Length=0.182861000,Units=km
new line.TR10268252 bus1=BMT98440554.3,bus2=BMT6468226B.3,Phases=1,Linecode=CAB202_3_1,Length=0.460659000,Units=km
new line.TR10268259 bus1=BMT6468226B.3,bus2=BMT98440561.3,Phases=1,Linecode=CAB202_3_1,Length=0.297345000,Units=km
new line.TR10278444 bus1=BMT98438076.2,bus2=BMT6484578B.2,Phases=1,Linecode=CAB202_3_1,Length=0.148280000,Units=km
new line.TR10278451 bus1=BMT6484578B.2,bus2=BMT6484585B.2,Phases=1,Linecode=CAB202_3_1,Length=0.045543000,Units=km
new line.TR10278458 bus1=BMT6484585B.2,bus2=BMT6484592B.2,Phases=1,Linecode=CAB202_3_1,Length=0.387154000,Units=km
new line.TR10278465 bus1=BMT6484592B.2,bus2=BMT6484599B.2,Phases=1,Linecode=CAB202_3_1,Length=0.381260000,Units=km
new line.TR10278472 bus1=BMT6484599B.2,bus2=BMT98438083.2,Phases=1,Linecode=CAB202_3_1,Length=0.107711000,Units=km
new line.TR10278479 bus1=BMT98438083.2,bus2=BMT98438090.2,Phases=1,Linecode=CAB202_3_1,Length=0.210046000,Units=km
new line.TR10278486 bus1=BMT98438125.2,bus2=BMT6484662B.2,Phases=1,Linecode=CAB202_3_1,Length=0.401497000,Units=km
new line.TR10278493 bus1=BMT98438090.2,bus2=BMT6484620B.2,Phases=1,Linecode=CAB202_3_1,Length=0.667359000,Units=km
new line.TR10278500 bus1=BMT98438090.2,bus2=BMT98438104.2,Phases=1,Linecode=CAB202_3_1,Length=0.290671000,Units=km
new line.TR10278507 bus1=BMT6484620B.2,bus2=BMT98438097.2,Phases=1,Linecode=CAB202_3_1,Length=0.287092000,Units=km
new line.TR10278514 bus1=BMT98438097.2,bus2=BMT6484634B.2,Phases=1,Linecode=CAB202_3_1,Length=0.220592000,Units=km
new line.TR10278521 bus1=BMT98438097.2,bus2=BMT98438118.2,Phases=1,Linecode=CAB202_3_1,Length=0.458995000,Units=km
new line.TR10278528 bus1=BMT6484634B.2,bus2=BMT6484641B.2,Phases=1,Linecode=CAB202_3_1,Length=0.343360000,Units=km
new line.TR10278535 bus1=BMT6484641B.2,bus2=BMT6484648B.2,Phases=1,Linecode=CAB202_3_1,Length=0.208933000,Units=km
new line.TR10278542 bus1=BMT6484648B.2,bus2=BMT98438111.2,Phases=1,Linecode=CAB202_3_1,Length=0.233811000,Units=km
new line.TR10278549 bus1=BMT6484662B.2,bus2=BMT6484669B.2,Phases=1,Linecode=CAB202_3_1,Length=0.033243000,Units=km
new line.TR10278556 bus1=BMT6484669B.2,bus2=BMT6484676B.2,Phases=1,Linecode=CAB202_3_1,Length=0.066032000,Units=km
new line.TR10278563 bus1=BMT6484676B.2,bus2=BMT6484683B.2,Phases=1,Linecode=CAB202_3_1,Length=0.212196000,Units=km
new line.TR10278570 bus1=BMT6484683B.2,bus2=BMT6484690B.2,Phases=1,Linecode=CAB202_3_1,Length=0.225083000,Units=km
new line.TR10278577 bus1=BMT6484690B.2,bus2=BMT6484697B.2,Phases=1,Linecode=CAB202_3_1,Length=0.141244000,Units=km
new line.TR10278584 bus1=BMT6484697B.2,bus2=BMT98438132.2,Phases=1,Linecode=CAB202_3_1,Length=0.065002000,Units=km
new line.TR10429042 bus1=BMT98432441.1,bus2=BMT6687004B.1,Phases=1,Linecode=CAB202_3_1,Length=0.065222000,Units=km
new line.TR10429091 bus1=BMT6687004B.1,bus2=BMT98432448.1,Phases=1,Linecode=CAB202_3_1,Length=0.595249000,Units=km
new line.TR10429098 bus1=BMT98432448.1,bus2=BMT6687270B.1,Phases=1,Linecode=CAB202_3_1,Length=0.171983000,Units=km
new line.TR10429105 bus1=BMT6687270B.1,bus2=BMT6687284B.1,Phases=1,Linecode=CAB202_3_1,Length=0.079267000,Units=km
new line.TR10429112 bus1=BMT6687284B.1,bus2=BMT98432455.1,Phases=1,Linecode=CAB202_3_1,Length=0.198325000,Units=km
new line.TR10429119 bus1=BMT98432455.1,bus2=BMT98432469.1,Phases=1,Linecode=CAB202_3_1,Length=0.218237000,Units=km
new line.TR10429126 bus1=BMT98432469.1,bus2=BMT6687319B.1,Phases=1,Linecode=CAB202_3_1,Length=0.225484000,Units=km
new line.TR10429133 bus1=BMT6687319B.1,bus2=BMT98432483.1,Phases=1,Linecode=CAB202_3_1,Length=0.038017000,Units=km
new line.TR10429140 bus1=BMT98432483.1,bus2=BMT6687340B.1,Phases=1,Linecode=CAB202_3_1,Length=0.284429000,Units=km
new line.TR10429259 bus1=BMT6687340B.1,bus2=BMT6687354B.1,Phases=1,Linecode=CAB202_3_1,Length=0.398136000,Units=km
new line.TR10429266 bus1=BMT6687354B.1,bus2=BMT6687361B.1,Phases=1,Linecode=CAB202_3_1,Length=0.198315000,Units=km
new line.TR10429273 bus1=BMT6687361B.1,bus2=BMT98432497.1,Phases=1,Linecode=CAB202_3_1,Length=0.097427000,Units=km
new line.TR10429280 bus1=BMT98432497.1,bus2=BMT6687403B.1,Phases=1,Linecode=CAB202_3_1,Length=0.122422000,Units=km
new line.TR10429287 bus1=BMT6687403B.1,bus2=BMT6687417B.1,Phases=1,Linecode=CAB202_3_1,Length=0.171846000,Units=km
new line.TR10429294 bus1=BMT6687417B.1,bus2=BMT6687424B.1,Phases=1,Linecode=CAB202_3_1,Length=0.046695000,Units=km
new line.TR10429301 bus1=BMT6687424B.1,bus2=BMT6687431B.1,Phases=1,Linecode=CAB202_3_1,Length=0.353782000,Units=km
new line.TR10429308 bus1=BMT6687431B.1,bus2=BMT98432511.1,Phases=1,Linecode=CAB202_3_1,Length=0.100633000,Units=km
new line.TR10429315 bus1=BMT98432511.1,bus2=BMT6687445B.1,Phases=1,Linecode=CAB202_3_1,Length=0.076617000,Units=km
new line.TR10429322 bus1=BMT6687445B.1,bus2=BMT6687452B.1,Phases=1,Linecode=CAB202_3_1,Length=0.041345000,Units=km
new line.TR10429329 bus1=BMT6687452B.1,bus2=BMT6687459B.1,Phases=1,Linecode=CAB202_3_1,Length=0.039209000,Units=km
new line.TR10429336 bus1=BMT6687459B.1,bus2=BMT6687473B.1,Phases=1,Linecode=CAB202_3_1,Length=0.104399000,Units=km
new line.TR10429343 bus1=BMT6687473B.1,bus2=BMT98432525.1,Phases=1,Linecode=CAB202_3_1,Length=0.204945000,Units=km
new line.TR10429427 bus1=BMT98432511.1,bus2=BMT98432532.1,Phases=1,Linecode=CAB103_3_1,Length=0.021216000,Units=km
new line.TR10429441 bus1=BMT98432497.1,bus2=BMT98432518.1,Phases=1,Linecode=CAB202_3_1,Length=0.109998000,Units=km
new line.TR10429511 bus1=BMT98432483.1,bus2=BMT98432504.1,Phases=1,Linecode=CAB202_3_1,Length=0.098336000,Units=km
new line.TR10429560 bus1=BMT98432469.1,bus2=BMT98432490.1,Phases=1,Linecode=CAB103_3_1,Length=0.025321000,Units=km
new line.TR10429581 bus1=BMT98432455.1,bus2=BMT98432476.1,Phases=1,Linecode=CAB103_3_1,Length=0.079563000,Units=km
new line.TR10429602 bus1=BMT98432448.1,bus2=BMT98432462.1,Phases=1,Linecode=CAB202_3_1,Length=0.299697000,Units=km
new line.TR10435279 bus1=BMT98436011.3,bus2=BMT98436032.3,Phases=1,Linecode=CAB103_3_1,Length=0.030414000,Units=km
new line.TR10437652 bus1=BMT128634970.3,bus2=BMT128634984.3,Phases=1,Linecode=CAB103_3_1,Length=0.033107000,Units=km
new line.TR10437659 bus1=BMT128634984.3,bus2=BMT6696615B.3,Phases=1,Linecode=CAB202_3_1,Length=0.110292000,Units=km
new line.TR10437666 bus1=BMT6696615B.3,bus2=BMT128634991.3,Phases=1,Linecode=CAB202_3_1,Length=0.031017000,Units=km
new line.TR10437673 bus1=BMT128634991.3,bus2=BMT128634998.3,Phases=1,Linecode=CAB202_3_1,Length=0.158116000,Units=km
new line.TR10437743 bus1=BMT128634991.3,bus2=BMT128635005.3,Phases=1,Linecode=CAB202_3_1,Length=0.304767000,Units=km
new line.TR10612925 bus1=BMT6875374B.3,bus2=BMT6875388B.3,Phases=1,Linecode=CAB202_3_1,Length=0.127962000,Units=km
new line.TR10612932 bus1=BMT6875388B.3,bus2=BMT6875395B.3,Phases=1,Linecode=CAB202_3_1,Length=0.072806000,Units=km
new line.TR10612939 bus1=BMT6875395B.3,bus2=BMT6875409B.3,Phases=1,Linecode=CAB202_3_1,Length=0.170428000,Units=km
new line.TR10612946 bus1=BMT6875409B.3,bus2=BMT6875465B.3,Phases=1,Linecode=CAB202_3_1,Length=0.150093000,Units=km
new line.TR10612953 bus1=BMT6875465B.3,bus2=BMT6875486B.3,Phases=1,Linecode=CAB202_3_1,Length=0.078395000,Units=km
new line.TR10612960 bus1=BMT6875486B.3,bus2=BMT6875493B.3,Phases=1,Linecode=CAB202_3_1,Length=0.163378000,Units=km
new line.TR10612967 bus1=BMT6875493B.3,bus2=BMT6875507B.3,Phases=1,Linecode=CAB202_3_1,Length=0.126831000,Units=km
new line.TR10612974 bus1=BMT6875507B.3,bus2=BMT6875521B.3,Phases=1,Linecode=CAB202_3_1,Length=0.116700000,Units=km
new line.TR10612981 bus1=BMT6875521B.3,bus2=BMT6875528B.3,Phases=1,Linecode=CAB202_3_1,Length=0.099304000,Units=km
new line.TR10612988 bus1=BMT6875528B.3,bus2=BMT98440141.3,Phases=1,Linecode=CAB202_3_1,Length=0.169319000,Units=km
new line.TR10612995 bus1=BMT98440141.3,bus2=BMT6875549B.3,Phases=1,Linecode=CAB202_3_1,Length=0.114777000,Units=km
new line.TR10613002 bus1=BMT6875549B.3,bus2=BMT6875563B.3,Phases=1,Linecode=CAB202_3_1,Length=0.104697000,Units=km
new line.TR10613009 bus1=BMT6875563B.3,bus2=BMT6875570B.3,Phases=1,Linecode=CAB202_3_1,Length=0.085094000,Units=km
new line.TR10613016 bus1=BMT6875570B.3,bus2=BMT6875577B.3,Phases=1,Linecode=CAB202_3_1,Length=0.062973000,Units=km
new line.TR10613023 bus1=BMT6875577B.3,bus2=BMT6875584B.3,Phases=1,Linecode=CAB202_3_1,Length=0.110325000,Units=km
new line.TR10613030 bus1=BMT6875584B.3,bus2=BMT6875682B.3,Phases=1,Linecode=CAB202_3_1,Length=0.120424000,Units=km
new line.TR10613037 bus1=BMT6875682B.3,bus2=BMT6875689B.3,Phases=1,Linecode=CAB202_3_1,Length=0.092055000,Units=km
new line.TR10613044 bus1=BMT6875689B.3,bus2=BMT6875696B.3,Phases=1,Linecode=CAB202_3_1,Length=0.087327000,Units=km
new line.TR10613051 bus1=BMT6875696B.3,bus2=BMT6875703B.3,Phases=1,Linecode=CAB202_3_1,Length=0.102457000,Units=km
new line.TR10613058 bus1=BMT6875703B.3,bus2=BMT6875724B.3,Phases=1,Linecode=CAB202_3_1,Length=0.172085000,Units=km
new line.TR10613065 bus1=BMT6875724B.3,bus2=BMT6875738B.3,Phases=1,Linecode=CAB202_3_1,Length=0.088148000,Units=km
new line.TR10613072 bus1=BMT6875738B.3,bus2=BMT6875759B.3,Phases=1,Linecode=CAB202_3_1,Length=0.104243000,Units=km
new line.TR10613079 bus1=BMT6875759B.3,bus2=BMT6875773B.3,Phases=1,Linecode=CAB202_3_1,Length=0.093500000,Units=km
new line.TR10613086 bus1=BMT6875773B.3,bus2=BMT98440162.3,Phases=1,Linecode=CAB202_3_1,Length=0.090792000,Units=km
new line.TR10613114 bus1=BMT98440141.3,bus2=BMT98440169.3,Phases=1,Linecode=CAB103_3_1,Length=0.024189000,Units=km
new line.TR10613198 bus1=BMT98440127.3,bus2=BMT98440148.3,Phases=1,Linecode=CAB202_3_1,Length=0.044646000,Units=km
new line.TR10613205 bus1=BMT98440148.3,bus2=BMT98440155.3,Phases=1,Linecode=CAB103_3_1,Length=0.076064000,Units=km
new line.TR10613303 bus1=BMT98440113.3,bus2=BMT98440134.3,Phases=1,Linecode=CAB103_3_1,Length=0.036499000,Units=km
new line.TR10613436 bus1=BMT6876431B.3,bus2=BMT6876452B.3,Phases=1,Linecode=CAB202_3_1,Length=0.117622000,Units=km
new line.TR10613443 bus1=BMT6876452B.3,bus2=BMT170599295.3,Phases=1,Linecode=CAB202_3_1,Length=0.132286000,Units=km
new line.TR10613450 bus1=BMT170599295.3,bus2=BMT6876473B.3,Phases=1,Linecode=CAB202_3_1,Length=0.116940000,Units=km
new line.TR10613457 bus1=BMT6876473B.3,bus2=BMT6876494B.3,Phases=1,Linecode=CAB202_3_1,Length=0.116735000,Units=km
new line.TR10613478 bus1=BMT170599295.3,bus2=BMT170599297.3,Phases=1,Linecode=CAB202_3_1,Length=0.111493000,Units=km
new line.TR10614444 bus1=BMT6876494B.3,bus2=BMT6876641B.3,Phases=1,Linecode=CAB202_3_1,Length=0.160564000,Units=km
new line.TR10614458 bus1=BMT6876641B.3,bus2=BMT6876669B.3,Phases=1,Linecode=CAB202_3_1,Length=0.169968000,Units=km
new line.TR10614549 bus1=BMT6876669B.3,bus2=BMT6876676B.3,Phases=1,Linecode=CAB202_3_1,Length=0.107623000,Units=km
new line.TR10614556 bus1=BMT6876676B.3,bus2=BMT6876683B.3,Phases=1,Linecode=CAB202_3_1,Length=0.135213000,Units=km
new line.TR10614563 bus1=BMT6876683B.3,bus2=BMT6876690B.3,Phases=1,Linecode=CAB202_3_1,Length=0.092365000,Units=km
new line.TR10614570 bus1=BMT6876690B.3,bus2=BMT170599296.3,Phases=1,Linecode=CAB202_3_1,Length=0.073012000,Units=km
new line.TR10614577 bus1=BMT170599296.3,bus2=BMT6876725B.3,Phases=1,Linecode=CAB202_3_1,Length=0.048799000,Units=km
new line.TR10614584 bus1=BMT6876725B.3,bus2=BMT6876739B.3,Phases=1,Linecode=CAB202_3_1,Length=0.124785000,Units=km
new line.TR10614591 bus1=BMT6876739B.3,bus2=BMT170599298.3,Phases=1,Linecode=CAB202_3_1,Length=0.153533000,Units=km
new line.TR10614598 bus1=BMT170599298.3,bus2=BMT6876760B.3,Phases=1,Linecode=CAB202_3_1,Length=0.111044000,Units=km
new line.TR10020515 bus1=BMT149258233.2,bus2=BMT149258234.2,Phases=1,Linecode=CAB202_3_1,Length=0.105051000,Units=km
new line.TR10020522 bus1=BMT149258233.2,bus2=BMT149258235.2,Phases=1,Linecode=CAB103_3_1,Length=0.022025000,Units=km
new line.TR10020529 bus1=BMT6021682B.2,bus2=BMT149258236.2,Phases=1,Linecode=CAB202_3_1,Length=0.161125000,Units=km
new line.TR10020536 bus1=BMT6021689B.2,bus2=BMT6021682B.2,Phases=1,Linecode=CAB202_3_1,Length=0.172017000,Units=km
new line.TR10020543 bus1=BMT149258235.2,bus2=BMT6021689B.2,Phases=1,Linecode=CAB202_3_1,Length=0.036017000,Units=km
new line.TR10170588 bus1=BMT152390023.1,bus2=BMT152390024.1,Phases=1,Linecode=CAB202_3_1,Length=0.110811000,Units=km
new line.TR10170595 bus1=BMT152390023.1,bus2=BMT6310544B.1,Phases=1,Linecode=CAB202_3_1,Length=0.359508000,Units=km
new line.TR10170602 bus1=BMT6310544B.1,bus2=BMT6310551B.1,Phases=1,Linecode=CAB202_3_1,Length=0.304239000,Units=km
new line.TR10170609 bus1=BMT6310551B.1,bus2=BMT6310565B.1,Phases=1,Linecode=CAB202_3_1,Length=0.072567000,Units=km
new line.TR10170616 bus1=BMT6310565B.1,bus2=BMT6310572B.1,Phases=1,Linecode=CAB202_3_1,Length=0.354539000,Units=km
new line.TR10170623 bus1=BMT6310572B.1,bus2=BMT152390025.1,Phases=1,Linecode=CAB202_3_1,Length=0.427607000,Units=km
new line.TR10170630 bus1=BMT152390025.1,bus2=BMT152390026.1,Phases=1,Linecode=CAB202_3_1,Length=0.234695000,Units=km
new line.TR10170637 bus1=BMT152390025.1,bus2=BMT152390027.1,Phases=1,Linecode=CAB202_3_1,Length=0.121213000,Units=km
new line.TR10170644 bus1=BMT152390026.1,bus2=BMT6310600B.1,Phases=1,Linecode=CAB202_3_1,Length=0.381998000,Units=km
new line.TR10170651 bus1=BMT152390026.1,bus2=BMT152390029.1,Phases=1,Linecode=CAB103_3_1,Length=0.064481000,Units=km
new line.TR10170658 bus1=BMT6310600B.1,bus2=BMT6310607B.1,Phases=1,Linecode=CAB202_3_1,Length=0.038488000,Units=km
new line.TR10170665 bus1=BMT6310607B.1,bus2=BMT6310614B.1,Phases=1,Linecode=CAB202_3_1,Length=0.033064000,Units=km
new line.TR10170672 bus1=BMT6310614B.1,bus2=BMT6310621B.1,Phases=1,Linecode=CAB202_3_1,Length=0.024518000,Units=km
new line.TR10170679 bus1=BMT6310621B.1,bus2=BMT152390028.1,Phases=1,Linecode=CAB202_3_1,Length=0.287568000,Units=km
new line.TR10170686 bus1=BMT152390028.1,bus2=BMT6310635B.1,Phases=1,Linecode=CAB202_3_1,Length=0.118319000,Units=km
new line.TR10170693 bus1=BMT152390028.1,bus2=BMT152390030.1,Phases=1,Linecode=CAB202_3_1,Length=0.107346000,Units=km
new line.TR10170700 bus1=BMT6310635B.1,bus2=BMT98432224.1,Phases=1,Linecode=CAB202_3_1,Length=0.112014000,Units=km
new line.TR10170707 bus1=BMT98432224.1,bus2=BMT152390031.1,Phases=1,Linecode=CAB202_3_1,Length=0.222453000,Units=km
new line.TR10172457 bus1=BMT6313603B.1,bus2=BMT6313610B.1,Phases=1,Linecode=CAB202_3_1,Length=0.540012000,Units=km
new line.TR10172464 bus1=BMT6313610B.1,bus2=BMT6313617B.1,Phases=1,Linecode=CAB202_3_1,Length=0.041441000,Units=km
new line.TR10172471 bus1=BMT6313617B.1,bus2=BMT6313624B.1,Phases=1,Linecode=CAB202_3_1,Length=0.204044000,Units=km
new line.TR10172478 bus1=BMT6313624B.1,bus2=BMT98432434.1,Phases=1,Linecode=CAB202_3_1,Length=0.122887000,Units=km
new line.TR10176958 bus1=BMT98433064.1,bus2=BMT6320582B.1,Phases=1,Linecode=CAB202_3_1,Length=0.247455000,Units=km
new line.TR10176965 bus1=BMT6320582B.1,bus2=BMT98433071.1,Phases=1,Linecode=CAB202_3_1,Length=0.059176000,Units=km
new line.TR10184203 bus1=BMT6332461B.1,bus2=BMT6332468B.1,Phases=1,Linecode=CAB202_3_1,Length=0.390894000,Units=km
new line.TR10184210 bus1=BMT6332468B.1,bus2=BMT98432546.1,Phases=1,Linecode=CAB202_3_1,Length=0.277876000,Units=km
new line.TR10339127 bus1=BMT6581927B.3,bus2=BMT6581934B.3,Phases=1,Linecode=CAB202_3_1,Length=0.209470000,Units=km
new line.TR10339134 bus1=BMT6581934B.3,bus2=BMT98436851.3,Phases=1,Linecode=CAB202_3_1,Length=0.196902000,Units=km
new line.TR10339148 bus1=BMT6581990B.1,bus2=BMT163959689.1,Phases=1,Linecode=CAB103_3_1,Length=0.016001000,Units=km
new line.TR10345259 bus1=BMT168148005.1,bus2=BMT165964417.1,Phases=1,Linecode=CAB202_3_1,Length=0.029968000,Units=km
new line.TR10345266 bus1=BMT165964417.1,bus2=BMT3703765B.1,Phases=1,Linecode=CAB202_3_1,Length=0.111404000,Units=km
new line.TR10345273 bus1=BMT165965366.1,bus2=BMT165965367.1,Phases=1,Linecode=CAB202_3_1,Length=0.367795000,Units=km
new line.TR10347653 bus1=BMT98434114.1,bus2=BMT98434128.1,Phases=1,Linecode=CAB202_3_1,Length=0.128151000,Units=km
new line.TR10516542 bus1=BMT98438034.1,bus2=BMT6766776B.1,Phases=1,Linecode=CAB202_3_1,Length=0.052155000,Units=km
new line.TR10516605 bus1=BMT6766776B.1,bus2=BMT98438048.1,Phases=1,Linecode=CAB202_3_1,Length=0.266067000,Units=km
new line.TR10529576 bus1=BMT98437887.2,bus2=BMT6789736B.2,Phases=1,Linecode=CAB202_3_1,Length=0.120833000,Units=km
new line.TR10529590 bus1=BMT6789743B.2,bus2=BMT6789750B.2,Phases=1,Linecode=CAB202_3_1,Length=0.173405000,Units=km
new line.TR10529597 bus1=BMT6789750B.2,bus2=BMT6789757B.2,Phases=1,Linecode=CAB202_3_1,Length=0.048012000,Units=km
new line.TR10529604 bus1=BMT6789757B.2,bus2=BMT6789764B.2,Phases=1,Linecode=CAB202_3_1,Length=0.062644000,Units=km
new line.TR10529611 bus1=BMT6789764B.2,bus2=BMT158684182.2,Phases=1,Linecode=CAB202_3_1,Length=0.113572000,Units=km
new line.TR10529618 bus1=BMT158684182.2,bus2=BMT6789778B.2,Phases=1,Linecode=CAB202_3_1,Length=0.096262000,Units=km
new line.TR10529625 bus1=BMT6789778B.2,bus2=BMT6789785B.2,Phases=1,Linecode=CAB202_3_1,Length=0.105307000,Units=km
new line.TR10529632 bus1=BMT6789785B.2,bus2=BMT98437901.2,Phases=1,Linecode=CAB202_3_1,Length=0.107841000,Units=km
new line.TR10529639 bus1=BMT98437901.2,bus2=BMT6789799B.2,Phases=1,Linecode=CAB202_3_1,Length=0.112003000,Units=km
new line.TR10529646 bus1=BMT6789799B.2,bus2=BMT160021681.2,Phases=1,Linecode=CAB202_3_1,Length=0.109076000,Units=km
new line.TR10132606 bus1=BMT6230149B.1.2.3,bus2=BMT172957813.1.2.3,Phases=3,Linecode=CABA06_3_3,Length=0.038898000,Units=km
new line.TR10132620 bus1=BMT172957813.1.2.3,bus2=BMT6230170B.1.2.3,Phases=3,Linecode=CABA06_3_3,Length=0.024042000,Units=km
new line.TR10132627 bus1=BMT6230170B.1.2.3,bus2=BMT6230184B.1.2.3,Phases=3,Linecode=CABA06_3_3,Length=0.027514000,Units=km
new line.TR10132641 bus1=BMT6230184B.1.2.3,bus2=BMT157636617.1.2.3,Phases=3,Linecode=CABA06_3_3,Length=0.040805000,Units=km
new line.TR10132648 bus1=BMT157639542.1.2.3,bus2=BMT157639543.1.2.3,Phases=3,Linecode=CABA06_3_3,Length=0.035441000,Units=km
new line.TR10132655 bus1=BMT157639543.1.2.3,bus2=BMT157639544.1.2.3,Phases=3,Linecode=CABA06_3_3,Length=0.045222000,Units=km
new line.TR10132662 bus1=BMT157639544.1.2.3,bus2=BMT157639546.1.2.3,Phases=3,Linecode=CABA06_3_3,Length=0.037948000,Units=km
new line.TR10132669 bus1=BMT157639546.1.2.3,bus2=BMT6230219B.1.2.3,Phases=3,Linecode=CABA06_3_3,Length=0.033527000,Units=km
new line.TR10132676 bus1=BMT6230219B.1.2.3,bus2=BMT98425294.1.2.3,Phases=3,Linecode=CABA06_3_3,Length=0.029121000,Units=km
new line.TR10132683 bus1=BMT152495571.1.2.3,bus2=BMT6230233B.1.2.3,Phases=3,Linecode=CAB204_3_3,Length=0.114162000,Units=km
new line.TR10132690 bus1=BMT6230233B.1.2.3,bus2=BMT6230240B.1.2.3,Phases=3,Linecode=CAB204_3_3,Length=0.112579000,Units=km
new line.TR10132697 bus1=BMT6230240B.1.2.3,bus2=BMT6230247B.1.2.3,Phases=3,Linecode=CAB204_3_3,Length=0.137594000,Units=km
new line.TR10132704 bus1=BMT6230247B.1.2.3,bus2=BMT6230254B.1.2.3,Phases=3,Linecode=CAB204_3_3,Length=0.189529000,Units=km
new line.TR10136561 bus1=BMT6237597B.1.2.3,bus2=BMT6230254B.1.2.3,Phases=3,Linecode=CAB204_3_3,Length=0.075293000,Units=km
new line.TR10148433 bus1=BMT98434520.1,bus2=BMT2130298B.1,Phases=1,Linecode=CAB202_3_1,Length=0.271019000,Units=km
new line.TR10282154 bus1=BMT6490276B.3,bus2=BMT6490283B.3,Phases=1,Linecode=CAB202_3_1,Length=0.148281000,Units=km
new line.TR10282161 bus1=BMT6490283B.3,bus2=BMT6490290B.3,Phases=1,Linecode=CAB202_3_1,Length=0.093113000,Units=km
new line.TR10282168 bus1=BMT6490290B.3,bus2=BMT6490297B.3,Phases=1,Linecode=CAB202_3_1,Length=0.092200000,Units=km
new line.TR10282175 bus1=BMT6490297B.3,bus2=BMT6490304B.3,Phases=1,Linecode=CAB202_3_1,Length=0.122305000,Units=km
new line.TR10282182 bus1=BMT6490304B.3,bus2=BMT6490311B.3,Phases=1,Linecode=CAB202_3_1,Length=0.082351000,Units=km
new line.TR10282189 bus1=BMT6490311B.3,bus2=BMT6490318B.3,Phases=1,Linecode=CAB202_3_1,Length=0.137444000,Units=km
new line.TR10282196 bus1=BMT6490318B.3,bus2=BMT6490325B.3,Phases=1,Linecode=CAB202_3_1,Length=0.127788000,Units=km
new line.TR10282203 bus1=BMT6490325B.3,bus2=BMT6490332B.3,Phases=1,Linecode=CAB202_3_1,Length=0.316553000,Units=km
new line.TR10282210 bus1=BMT6490332B.3,bus2=BMT6490339B.3,Phases=1,Linecode=CAB202_3_1,Length=0.108790000,Units=km
new line.TR10282217 bus1=BMT6490339B.3,bus2=BMT6490353B.3,Phases=1,Linecode=CAB202_3_1,Length=0.118463000,Units=km
new line.TR10282224 bus1=BMT6490353B.3,bus2=BMT98440617.3,Phases=1,Linecode=CAB202_3_1,Length=0.093305000,Units=km
new line.TR10286151 bus1=BMT6496408B.1,bus2=BMT6496415B.1,Phases=1,Linecode=CAB202_3_1,Length=0.261875000,Units=km
new line.TR10286158 bus1=BMT6496415B.1,bus2=BMT6496422B.1,Phases=1,Linecode=CAB202_3_1,Length=0.245327000,Units=km
new line.TR10286165 bus1=BMT6496422B.1,bus2=BMT6496429B.1,Phases=1,Linecode=CAB202_3_1,Length=0.143009000,Units=km
new line.TR10286172 bus1=BMT6496429B.1,bus2=BMT98431202.1,Phases=1,Linecode=CAB202_3_1,Length=0.224304000,Units=km
new line.TR10287915 bus1=BMT98436452.3,bus2=BMT98436459.3,Phases=1,Linecode=CAB202_3_1,Length=0.184449000,Units=km
new line.TR10287922 bus1=BMT98436452.3,bus2=BMT6499173B.3,Phases=1,Linecode=CAB103_3_1,Length=0.001001000,Units=km
new line.TR10287929 bus1=BMT6499173B.3,bus2=BMT98436466.3,Phases=1,Linecode=CAB103_3_1,Length=0.049981000,Units=km
new line.TR10296756 bus1=BMT159173059.3,bus2=BMT159173060.3,Phases=1,Linecode=CAB202_3_1,Length=0.020001000,Units=km
new line.TR10296763 bus1=BMT159173059.3,bus2=BMT6513880B.3,Phases=1,Linecode=CAB202_3_1,Length=0.229020000,Units=km
new line.TR10296770 bus1=BMT6513880B.3,bus2=BMT159173061.3,Phases=1,Linecode=CAB202_3_1,Length=0.374778000,Units=km
new line.TR10296777 bus1=BMT159173061.3,bus2=BMT6513894B.3,Phases=1,Linecode=CAB202_3_1,Length=0.456050000,Units=km
new line.TR10296784 bus1=BMT159173061.3,bus2=BMT159173063.3,Phases=1,Linecode=CAB202_3_1,Length=0.127462000,Units=km
new line.TR10296791 bus1=BMT6513894B.3,bus2=BMT159173062.3,Phases=1,Linecode=CAB202_3_1,Length=0.464074000,Units=km
new line.TR10445324 bus1=BMT98436130.3,bus2=BMT98436144.3,Phases=1,Linecode=CAB103_3_1,Length=0.019210000,Units=km
new line.TR10612624 bus1=BMT98440099.3,bus2=BMT6873827B.3,Phases=1,Linecode=CAB202_3_1,Length=0.229417000,Units=km
new line.TR10612708 bus1=BMT6873827B.3,bus2=BMT6873834B.3,Phases=1,Linecode=CAB202_3_1,Length=0.048014000,Units=km
new line.TR10612715 bus1=BMT6873834B.3,bus2=BMT6873841B.3,Phases=1,Linecode=CAB202_3_1,Length=0.179615000,Units=km
new line.TR10612722 bus1=BMT6873841B.3,bus2=BMT6873848B.3,Phases=1,Linecode=CAB202_3_1,Length=0.095887000,Units=km
new line.TR10612729 bus1=BMT6873848B.3,bus2=BMT6873855B.3,Phases=1,Linecode=CAB202_3_1,Length=0.043420000,Units=km
new line.TR10612736 bus1=BMT6873855B.3,bus2=BMT98440113.3,Phases=1,Linecode=CAB202_3_1,Length=0.235069000,Units=km
new line.TR10612743 bus1=BMT98440113.3,bus2=BMT6873876B.3,Phases=1,Linecode=CAB202_3_1,Length=0.101604000,Units=km
new line.TR10612750 bus1=BMT6873876B.3,bus2=BMT6873883B.3,Phases=1,Linecode=CAB202_3_1,Length=0.261293000,Units=km
new line.TR10612757 bus1=BMT6873883B.3,bus2=BMT6873890B.3,Phases=1,Linecode=CAB202_3_1,Length=0.151354000,Units=km
new line.TR10612764 bus1=BMT6873890B.3,bus2=BMT6873897B.3,Phases=1,Linecode=CAB202_3_1,Length=0.121305000,Units=km
new line.TR10612771 bus1=BMT6873897B.3,bus2=BMT6873904B.3,Phases=1,Linecode=CAB202_3_1,Length=0.118012000,Units=km
new line.TR10612778 bus1=BMT6873904B.3,bus2=BMT6873911B.3,Phases=1,Linecode=CAB202_3_1,Length=0.105482000,Units=km