new line.RML10020606 bus1=BBT444208.3.0,bus2=RML1060020606.3.0,Phases=1,Linecode=CABBTG02_4_1,Length=0.017000000,Units=km
new line.RML10020816 bus1=BBT5249029.2.0,bus2=RML1060020816.2.0,Phases=1,Linecode=CABBTG03_4_1,Length=0.017000000,Units=km
new line.RML10023147 bus1=BBT5958374.1.0,bus2=RML1060023147.1.0,Phases=1,Linecode=CABBTG03_4_1,Length=0.017000000,Units=km
new line.RML10027935 bus1=BBT3849603.1.2.0,bus2=RML1060027935.1.2.0,Phases=2,Linecode=CABBTG13_4_2,Length=0.017000000,Units=km
new line.RML1002850 bus1=BBT548914.3.0,bus2=RML1051002850.3.0,Phases=1,Linecode=CABBTG01_4_1,Length=0.017000000,Units=km
new line.RML1002857 bus1=BBT548907.3.0,bus2=RML1051002857.3.0,Phases=1,Linecode=CABBTG01_4_1,Length=0.017000000,Units=km
new line.RML1002864 bus1=BBT548921.1.0,bus2=RML1051002864.1.0,Phases=1,Linecode=CABBTG01_4_1,Length=0.017000000,Units=km
new line.RML1002871 bus1=BBT548942.1.0,bus2=RML1051002871.1.0,Phases=1,Linecode=CABBTG01_4_1,Length=0.017000000,Units=km
new line.RML1002878 bus1=BBT548921.1.2.0,bus2=RML1051002878.1.2.0,Phases=2,Linecode=CABBTG04_4_2,Length=0.017000000,Units=km
new line.RML10028838 bus1=BBT3850366.2.0,bus2=RML1060028838.2.0,Phases=1,Linecode=CABBTG02_4_1,Length=0.017000000,Units=km
new line.RML1002885 bus1=BBT548921.3.0,bus2=RML1051002885.3.0,Phases=1,Linecode=CABBTG01_4_1,Length=0.017000000,Units=km
new line.RML1002892 bus1=BBT548907.2.0,bus2=RML1051002892.2.0,Phases=1,Linecode=CABBTG01_4_1,Length=0.017000000,Units=km
new line.RML1002899 bus1=BBT548928.2.0,bus2=RML1051002899.2.0,Phases=1,Linecode=CABBTG01_4_1,Length=0.017000000,Units=km
new line.RML10028999 bus1=BBT6036718.2.0,bus2=RML1060028999.2.0,Phases=1,Linecode=CABBTG02_4_1,Length=0.017000000,Units=km
new line.RML10029041 bus1=BBT6753742.2.0,bus2=RML1060029041.2.0,Phases=1,Linecode=CABBTG02_4_1,Length=0.017000000,Units=km
new line.RML10029048 bus1=BBT6210129.3.0,bus2=RML1060029048.3.0,Phases=1,Linecode=CABBTG02_4_1,Length=0.017000000,Units=km
new line.RML10029083 bus1=BBT138092740.1.0,bus2=RML1060029083.1.0,Phases=1,Linecode=CABBTG02_4_1,Length=0.017000000,Units=km
new line.RML10029090 bus1=BBT138092740.3.0,bus2=RML1060029090.3.0,Phases=1,Linecode=CABBTG02_4_1,Length=0.017000000,Units=km
new line.RML10029097 bus1=BBT138094945.3.0,bus2=RML1060029097.3.0,Phases=1,Linecode=CABBTG02_4_1,Length=0.017000000,Units=km
new line.RML10029104 bus1=BBT138094945.2.0,bus2=RML1060029104.2.0,Phases=1,Linecode=CABBTG02_4_1,Length=0.017000000,Units=km
new line.RML10029111 bus1=BBT138094952.3.0,bus2=RML1060029111.3.0,Phases=1,Linecode=CABBTG02_4_1,Length=0.017000000,Units=km
new line.RML10029125 bus1=BBT77111876.3.0,bus2=RML1060029125.3.0,Phases=1,Linecode=CABBTG02_4_1,Length=0.017000000,Units=km
new line.RML1002913 bus1=BBT548984.1.0,bus2=RML1051002913.1.0,Phases=1,Linecode=CABBTG01_4_1,Length=0.017000000,Units=km
new line.RML10029174 bus1=BBT7351017.1.0,bus2=RML1060029174.1.0,Phases=1,Linecode=CABBTG02_4_1,Length=0.017000000,Units=km
new line.RML1002920 bus1=BBT548984.3.0,bus2=RML1051002920.3.0,Phases=1,Linecode=CABBTG01_4_1,Length=0.017000000,Units=km
new line.RML10029209 bus1=BBT90929708.1.3.0,bus2=RML1060029209.1.3.0,Phases=2,Linecode=CABBT814_4_2,Length=0.017000000,Units=km
new line.RML1002927 bus1=BBT548949.3.0,bus2=RML1051002927.3.0,Phases=1,Linecode=CABBTG01_4_1,Length=0.017000000,Units=km
new line.RML1002934 bus1=BBT548949.3.0,bus2=RML1051002934.3.0,Phases=1,Linecode=CABBTG01_4_1,Length=0.017000000,Units=km
new line.RML10029384 bus1=BBT450403.1.2.3.0,bus2=RML1060029384.1.2.3.0,Phases=3,Linecode=CABBTG10_4_3,Length=0.017000000,Units=km
new line.RML1002941 bus1=BBT548956.1.0,bus2=RML1051002941.1.0,Phases=1,Linecode=CABBTG01_4_1,Length=0.017000000,Units=km
new line.RML10029468 bus1=BBT454190.3.0,bus2=RML1060029468.3.0,Phases=1,Linecode=CABBTG02_4_1,Length=0.017000000,Units=km
new line.RML1002948 bus1=BBT548977.1.2.3.0,bus2=RML1051002948.1.2.3.0,Phases=3,Linecode=CABBTG07_4_3,Length=0.017000000,Units=km
new line.RML10029482 bus1=BBT138121202.2.3.0,bus2=RML1060029482.2.3.0,Phases=2,Linecode=CABBTG05_4_2,Length=0.017000000,Units=km
new line.RML1002955 bus1=BBT548970.1.0,bus2=RML1051002955.1.0,Phases=1,Linecode=CABBTG01_4_1,Length=0.017000000,Units=km
new line.RML1002962 bus1=BBT548977.2.0,bus2=RML1051002962.2.0,Phases=1,Linecode=CABBTG01_4_1,Length=0.017000000,Units=km
new line.RML1002969 bus1=BBT548984.3.0,bus2=RML1051002969.3.0,Phases=1,Linecode=CABBTG01_4_1,Length=0.017000000,Units=km
new line.RML1002976 bus1=BBT548970.1.0,bus2=RML1051002976.1.0,Phases=1,Linecode=CABBTG01_4_1,Length=0.017000000,Units=km
new line.RML1002983 bus1=BBT548977.2.0,bus2=RML1051002983.2.0,Phases=1,Linecode=CABBTG01_4_1,Length=0.017000000,Units=km
new line.RML1002990 bus1=BBT548984.1.0,bus2=RML1051002990.1.0,Phases=1,Linecode=CABBTG01_4_1,Length=0.017000000,Units=km
new line.RML1002997 bus1=BBT548984.3.0,bus2=RML1051002997.3.0,Phases=1,Linecode=CABBTG01_4_1,Length=0.017000000,Units=km
new line.RML1003004 bus1=BBT488014.2.0,bus2=RML1051003004.2.0,Phases=1,Linecode=CABBTG02_4_1,Length=0.012000000,Units=km
new line.RML1003011 bus1=BBT488007.1.0,bus2=RML1051003011.1.0,Phases=1,Linecode=CABBTG01_4_1,Length=0.017000000,Units=km
new line.RML1003018 bus1=BBT548991.1.0,bus2=RML1051003018.1.0,Phases=1,Linecode=CABBTG01_4_1,Length=0.017000000,Units=km
new line.RML1003025 bus1=BBT548998.2.0,bus2=RML1051003025.2.0,Phases=1,Linecode=CABBTG02_4_1,Length=0.017000000,Units=km
new line.RML1003032 bus1=BBT549005.1.0,bus2=RML1051003032.1.0,Phases=1,Linecode=CABBTG01_4_1,Length=0.017000000,Units=km
new line.RML1003039 bus1=BBT549012.3.0,bus2=RML1051003039.3.0,Phases=1,Linecode=CABBTG01_4_1,Length=0.017000000,Units=km
new line.RML1003046 bus1=BBT549012.1.0,bus2=RML1051003046.1.0,Phases=1,Linecode=CABBTG01_4_1,Length=0.017000000,Units=km
new line.RML1003053 bus1=BBT549012.2.0,bus2=RML1051003053.2.0,Phases=1,Linecode=CABBTG01_4_1,Length=0.017000000,Units=km
new line.RML1003060 bus1=BBT549012.2.0,bus2=RML1051003060.2.0,Phases=1,Linecode=CABBTG01_4_1,Length=0.017000000,Units=km
new line.RML1003067 bus1=BBT549026.3.0,bus2=RML1051003067.3.0,Phases=1,Linecode=CABBTG01_4_1,Length=0.017000000,Units=km
new line.RML1003074 bus1=BBT549096.1.0,bus2=RML1051003074.1.0,Phases=1,Linecode=CABBTG01_4_1,Length=0.017000000,Units=km
new line.RML1003081 bus1=BBT549033.1.0,bus2=RML1051003081.1.0,Phases=1,Linecode=CABBTG01_4_1,Length=0.017000000,Units=km
new line.RML1003088 bus1=BBT549033.3.0,bus2=RML1051003088.3.0,Phases=1,Linecode=CABBTG01_4_1,Length=0.017000000,Units=km
new line.RML1003095 bus1=BBT549040.1.2.0,bus2=RML1051003095.1.2.0,Phases=2,Linecode=CABBTG05_4_2,Length=0.017000000,Units=km
new line.RML1003102 bus1=BBT549054.1.2.0,bus2=RML1051003102.1.2.0,Phases=2,Linecode=CABBTG05_4_2,Length=0.017000000,Units=km
new line.RML1003109 bus1=BBT549089.2.0,bus2=RML1051003109.2.0,Phases=1,Linecode=CABBTG01_4_1,Length=0.017000000,Units=km
new line.RML1003116 bus1=BBT549096.1.0,bus2=RML1051003116.1.0,Phases=1,Linecode=CABBTG01_4_1,Length=0.017000000,Units=km
new line.RML1003123 bus1=BBT549096.3.0,bus2=RML1051003123.3.0,Phases=1,Linecode=CABBTG01_4_1,Length=0.017000000,Units=km
new line.RML1003130 bus1=BBT549096.1.3.0,bus2=RML1051003130.1.3.0,Phases=2,Linecode=CABBTG05_4_2,Length=0.017000000,Units=km
new line.RML1003137 bus1=BBT549103.3.0,bus2=RML1051003137.3.0,Phases=1,Linecode=CABBTG01_4_1,Length=0.017000000,Units=km
new line.RML1003144 bus1=BBT549110.2.0,bus2=RML1051003144.2.0,Phases=1,Linecode=CABBTG01_4_1,Length=0.017000000,Units=km
new line.RML1003158 bus1=BBT549124.2.0,bus2=RML1051003158.2.0,Phases=1,Linecode=CABBTG01_4_1,Length=0.017000000,Units=km
new line.RML1000001 bus1=BBT546737.1.0,bus2=RML1051000001.1.0,Phases=1,Linecode=CABBTG01_4_1,Length=0.017000000,Units=km
new line.RML10000075 bus1=BBT3920709.2.0,bus2=RML1060000075.2.0,Phases=1,Linecode=CABBTG02_4_1,Length=0.017000000,Units=km
new line.RML1000008 bus1=BBT546737.2.0,bus2=RML1051000008.2.0,Phases=1,Linecode=CABBTG01_4_1,Length=0.017000000,Units=km
new line.RML10000089 bus1=BBT138092747.2.3.0,bus2=RML1060000089.2.3.0,Phases=2,Linecode=CABBTG05_4_2,Length=0.017000000,Units=km
new line.RML1000015 bus1=BBT546737.1.0,bus2=RML1051000015.1.0,Phases=1,Linecode=CABBTG01_4_1,Length=0.017000000,Units=km
new line.RML10000152 bus1=BBT448954.2.3.0,bus2=RML1060000152.2.3.0,Phases=2,Linecode=CABBTG05_4_2,Length=0.017000000,Units=km
new line.RML1000022 bus1=BBT546737.1.0,bus2=RML1051000022.1.0,Phases=1,Linecode=CABBTG01_4_1,Length=0.017000000,Units=km
new line.RML1000029 bus1=BBT546751.1.0,bus2=RML1051000029.1.0,Phases=1,Linecode=CABBTG01_4_1,Length=0.017000000,Units=km
new line.RML1000036 bus1=BBT546758.2.0,bus2=RML1051000036.2.0,Phases=1,Linecode=CABBTG01_4_1,Length=0.017000000,Units=km
new line.RML1000043 bus1=BBT546758.1.2.3.0,bus2=RML1051000043.1.2.3.0,Phases=3,Linecode=CABBTG06_4_3,Length=0.017000000,Units=km
new line.RML1000050 bus1=BBT546765.3.0,bus2=RML1051000050.3.0,Phases=1,Linecode=CABBTG01_4_1,Length=0.017000000,Units=km
new line.RML1000057 bus1=BBT546765.1.0,bus2=RML1051000057.1.0,Phases=1,Linecode=CABBTG01_4_1,Length=0.017000000,Units=km
new line.RML1000064 bus1=BBT546765.1.2.3.0,bus2=RML1051000064.1.2.3.0,Phases=3,Linecode=CABBTG07_4_3,Length=0.017000000,Units=km
new line.RML1000071 bus1=BBT546772.2.0,bus2=RML1051000071.2.0,Phases=1,Linecode=CABBTG01_4_1,Length=0.017000000,Units=km
new line.RML1000078 bus1=BBT546772.1.0,bus2=RML1051000078.1.0,Phases=1,Linecode=CABBTG01_4_1,Length=0.017000000,Units=km
new line.RML1000085 bus1=BBT546751.2.3.0,bus2=RML1051000085.2.3.0,Phases=2,Linecode=CABBTG05_4_2,Length=0.017000000,Units=km
new line.RML1000092 bus1=BBT546779.2.0,bus2=RML1051000092.2.0,Phases=1,Linecode=CABBTG01_4_1,Length=0.017000000,Units=km
new line.RML1000099 bus1=BBT546779.2.0,bus2=RML1051000099.2.0,Phases=1,Linecode=CABBTG01_4_1,Length=0.017000000,Units=km
new line.RML1000106 bus1=BBT546779.1.0,bus2=RML1051000106.1.0,Phases=1,Linecode=CABBTG01_4_1,Length=0.017000000,Units=km
new line.RML1000113 bus1=BBT546779.1.2.3.0,bus2=RML1051000113.1.2.3.0,Phases=3,Linecode=CABBTG08_4_3,Length=0.017000000,Units=km
new line.RML1000120 bus1=BBT546779.2.3.0,bus2=RML1051000120.2.3.0,Phases=2,Linecode=CABBTG05_4_2,Length=0.017000000,Units=km
new line.RML1000127 bus1=BBT546779.3.0,bus2=RML1051000127.3.0,Phases=1,Linecode=CABBTG01_4_1,Length=0.017000000,Units=km
new line.RML1000134 bus1=BBT546786.2.0,bus2=RML1051000134.2.0,Phases=1,Linecode=CABBTG01_4_1,Length=0.017000000,Units=km
new line.RML1000141 bus1=BBT546786.2.3.0,bus2=RML1051000141.2.3.0,Phases=2,Linecode=CABBTG05_4_2,Length=0.017000000,Units=km
new line.RML1000148 bus1=BBT546786.1.0,bus2=RML1051000148.1.0,Phases=1,Linecode=CABBTG01_4_1,Length=0.017000000,Units=km
new line.RML1000155 bus1=BBT546786.3.0,bus2=RML1051000155.3.0,Phases=1,Linecode=CABBTG01_4_1,Length=0.017000000,Units=km
new line.RML1000162 bus1=BBT546807.2.0,bus2=RML1051000162.2.0,Phases=1,Linecode=CABBTG01_4_1,Length=0.017000000,Units=km
new line.RML1000169 bus1=BBT546807.1.2.3.0,bus2=RML1051000169.1.2.3.0,Phases=3,Linecode=CABBTG06_4_3,Length=0.017000000,Units=km
new line.RML1000176 bus1=BBT546807.1.2.0,bus2=RML1051000176.1.2.0,Phases=2,Linecode=CABBTG05_4_2,Length=0.017000000,Units=km
new line.RML1000183 bus1=BBT546807.3.0,bus2=RML1051000183.3.0,Phases=1,Linecode=CABBTG01_4_1,Length=0.017000000,Units=km
new line.RML1000190 bus1=BBT546814.1.0,bus2=RML1051000190.1.0,Phases=1,Linecode=CABBTG01_4_1,Length=0.017000000,Units=km
new line.RML10008769 bus1=BBT455114.2.0,bus2=RML1060008769.2.0,Phases=1,Linecode=CABBTG03_4_1,Length=0.017000000,Units=km
new line.RML10008790 bus1=BBT3847062.1.0,bus2=RML1060008790.1.0,Phases=1,Linecode=CABBTG03_4_1,Length=0.017000000,Units=km
new line.RML10008797 bus1=BBT7282249.1.2.0,bus2=RML1060008797.1.2.0,Phases=2,Linecode=CABBTG13_4_2,Length=0.017000000,Units=km
new line.RML10008853 bus1=BBT592874.1.0,bus2=RML1060008853.1.0,Phases=1,Linecode=CABBTG02_4_1,Length=0.017000000,Units=km
new line.RML10008874 bus1=BBT448926.1.3.0,bus2=RML1060008874.1.3.0,Phases=2,Linecode=CABBTG05_4_2,Length=0.017000000,Units=km
new line.RML10008909 bus1=BBT453336.3.0,bus2=RML1060008909.3.0,Phases=1,Linecode=CABBTG02_4_1,Length=0.017000000,Units=km
new line.RML10010190 bus1=BBT6568816.1.0,bus2=RML1060010190.1.0,Phases=1,Linecode=CABBTG02_4_1,Length=0.017000000,Units=km
new line.RML10010309 bus1=BBT452013.3.0,bus2=RML1060010309.3.0,Phases=1,Linecode=CABBTG02_4_1,Length=0.017000000,Units=km
new line.RML1005790 bus1=BBT454393.1.2.0,bus2=RML1051005790.1.2.0,Phases=2,Linecode=CABBTG05_4_2,Length=0.017000000,Units=km
new line.RML1005797 bus1=BBT454834.1.2.0,bus2=RML1051005797.1.2.0,Phases=2,Linecode=CABBTG05_4_2,Length=0.017000000,Units=km
new line.RML1005804 bus1=BBT7343450.1.0,bus2=RML1051005804.1.0,Phases=1,Linecode=CABBTG02_4_1,Length=0.017000000,Units=km
new line.RML10085647 bus1=BBT488427.2.3.0,bus2=RML1060085647.2.3.0,Phases=2,Linecode=CABBTG05_4_2,Length=0.017000000,Units=km
new line.RML10085652 bus1=BBT538932.2.0,bus2=RML1060085652.2.0,Phases=1,Linecode=CABBTG02_4_1,Length=0.017000000,Units=km
new line.RML10085805 bus1=BBT3846194.3.0,bus2=RML1060085805.3.0,Phases=1,Linecode=CABBTG02_4_1,Length=0.017000000,Units=km
new line.RML10085848 bus1=BBT130250570.1.3.0,bus2=RML1060085848.1.3.0,Phases=2,Linecode=CABBTG05_4_2,Length=0.017000000,Units=km
new line.RML10085937 bus1=BBT3339968.2.0,bus2=RML1060085937.2.0,Phases=1,Linecode=CABBTG02_4_1,Length=0.017000000,Units=km
new line.RML10086375 bus1=BBT105050766.2.0,bus2=RML1060086375.2.0,Phases=1,Linecode=CABBTG02_4_1,Length=0.017000000,Units=km
new line.RML10086702 bus1=BBT2801017.3.0,bus2=RML1060086702.3.0,Phases=1,Linecode=CABBTG02_4_1,Length=0.017000000,Units=km
new line.RML10086998 bus1=BBT138119879.3.0,bus2=RML1060086998.3.0,Phases=1,Linecode=CABBTG02_4_1,Length=0.017000000,Units=km
new line.RML10087057 bus1=BBT546618.1.0,bus2=RML1060087057.1.0,Phases=1,Linecode=CABBTG02_4_1,Length=0.017000000,Units=km
new line.RML10087421 bus1=BBT448835.1.0,bus2=RML1060087421.1.0,Phases=1,Linecode=CABBTG02_4_1,Length=0.017000000,Units=km
new line.RML10087446 bus1=BBT447435.1.2.0,bus2=RML1060087446.1.2.0,Phases=2,Linecode=CABBTG05_4_2,Length=0.017000000,Units=km
new line.RML10087454 bus1=BBT20661643.1.2.3.0,bus2=RML1060087454.1.2.3.0,Phases=3,Linecode=CABBTG12_4_3,Length=0.017000000,Units=km
new line.RML10087500 bus1=BBT454848.1.0,bus2=RML1060087500.1.0,Phases=1,Linecode=CABBTG02_4_1,Length=0.017000000,Units=km
new line.RML10087519 bus1=BBT444285.1.2.3.0,bus2=RML1060087519.1.2.3.0,Phases=3,Linecode=CABBTG06_4_3,Length=0.017000000,Units=km
new line.RML10087525 bus1=BBT23138124.1.0,bus2=RML1060087525.1.0,Phases=1,Linecode=CABBTG02_4_1,Length=0.017000000,Units=km
new line.RML10087547 bus1=BBT6568872.1.0,bus2=RML1060087547.1.0,Phases=1,Linecode=CABBTG02_4_1,Length=0.017000000,Units=km
new line.RML10087572 bus1=BBT89203032.1.2.0,bus2=RML1060087572.1.2.0,Phases=2,Linecode=CABBTG05_4_2,Length=0.017000000,Units=km
new line.RML10087605 bus1=BBT59592682.1.2.0,bus2=RML1060087605.1.2.0,Phases=2,Linecode=CABBTG05_4_2,Length=0.017000000,Units=km
new line.RML10087621 bus1=BBT6568865.1.0,bus2=RML1060087621.1.0,Phases=1,Linecode=CABBTG02_4_1,Length=0.017000000,Units=km
new line.RML10087625 bus1=BBT138121202.1.0,bus2=RML1060087625.1.0,Phases=1,Linecode=CABBTG02_4_1,Length=0.017000000,Units=km
new line.RML10039928 bus1=BBT90048674.1.0,bus2=RML1060039928.1.0,Phases=1,Linecode=CABBTG02_4_1,Length=0.017000000,Units=km
new line.RML10039982 bus1=BBT133372990.1.0,bus2=RML1060039982.1.0,Phases=1,Linecode=CABBTG02_4_1,Length=0.017000000,Units=km
new line.RML10039983 bus1=BBT4469138.1.2.0,bus2=RML1060039983.1.2.0,Phases=2,Linecode=CABBTG05_4_2,Length=0.017000000,Units=km
new line.RML10039985 bus1=BBT133372990.2.0,bus2=RML1060039985.2.0,Phases=1,Linecode=CABBTG02_4_1,Length=0.017000000,Units=km
new line.RML10039988 bus1=BBT133372990.2.0,bus2=RML1060039988.2.0,Phases=1,Linecode=CABBTG02_4_1,Length=0.017000000,Units=km
new line.RML10039990 bus1=BBT133372990.1.0,bus2=RML1060039990.1.0,Phases=1,Linecode=CABBTG02_4_1,Length=0.017000000,Units=km
new line.RML10040233 bus1=BBT448765.1.0,bus2=RML1060040233.1.0,Phases=1,Linecode=CABBTG02_4_1,Length=0.017000000,Units=km
new line.RML10042582 bus1=BBT591845.3.0,bus2=RML1060042582.3.0,Phases=1,Linecode=CABBTG02_4_1,Length=0.017000000,Units=km
new line.RML10042589 bus1=BBT445762.3.0,bus2=RML1060042589.3.0,Phases=1,Linecode=CABBTG02_4_1,Length=0.017000000,Units=km
new line.RML10042602 bus1=BBT138092684.1.2.0,bus2=RML1060042602.1.2.0,Phases=2,Linecode=CABBTG05_4_2,Length=0.017000000,Units=km
new line.RML10042605 bus1=BBT6568893.1.2.0,bus2=RML1060042605.1.2.0,Phases=2,Linecode=CABBTG05_4_2,Length=0.017000000,Units=km
new line.RML10042615 bus1=BBT149863255.1.3.0,bus2=RML1060042615.1.3.0,Phases=2,Linecode=CABBTG13_4_2,Length=0.017000000,Units=km
new line.RML10042647 bus1=BBT3850359.2.0,bus2=RML1060042647.2.0,Phases=1,Linecode=CABBTG02_4_1,Length=0.017000000,Units=km
new line.RML10042696 bus1=BBT78957531.1.0,bus2=RML1060042696.1.0,Phases=1,Linecode=CABBTG02_4_1,Length=0.017000000,Units=km
new line.RML10070682 bus1=BBT4766589.1.2.0,bus2=RML1060070682.1.2.0,Phases=2,Linecode=CABBTG05_4_2,Length=0.017000000,Units=km
new line.RML10071070 bus1=BBT90048674.2.0,bus2=RML1060071070.2.0,Phases=1,Linecode=CABBTG02_4_1,Length=0.017000000,Units=km
new line.RML10071345 bus1=BBT149077878.1.0,bus2=RML1060071345.1.0,Phases=1,Linecode=CABBTG01_4_1,Length=0.017000000,Units=km
new line.RML10072276 bus1=BBT6568648.2.0,bus2=RML1060072276.2.0,Phases=1,Linecode=CABBTG02_4_1,Length=0.017000000,Units=km
new line.RML10072280 bus1=BBT543909.3.0,bus2=RML1060072280.3.0,Phases=1,Linecode=CABBTG02_4_1,Length=0.017000000,Units=km
new line.RML10072767 bus1=BBT446483.1.2.3.0,bus2=RML1060072767.1.2.3.0,Phases=3,Linecode=CABBTG12_4_3,Length=0.017000000,Units=km
new line.RML10072780 bus1=BBT447582.2.3.0,bus2=RML1060072780.2.3.0,Phases=2,Linecode=CABBTG05_4_2,Length=0.017000000,Units=km
new line.RML10101317 bus1=BBT454169.1.0,bus2=RML1060101317.1.0,Phases=1,Linecode=CABBTG02_4_1,Length=0.017000000,Units=km
new line.RML10101322 bus1=BBT447393.1.0,bus2=RML1060101322.1.0,Phases=1,Linecode=CABBTG02_4_1,Length=0.017000000,Units=km
new line.RML10101324 bus1=BBT447393.2.0,bus2=RML1060101324.2.0,Phases=1,Linecode=CABBTG02_4_1,Length=0.017000000,Units=km
new line.RML10101326 bus1=BBT133372983.1.2.0,bus2=RML1060101326.1.2.0,Phases=2,Linecode=CABBTG05_4_2,Length=0.017000000,Units=km
new line.RML10101327 bus1=BBT447393.1.0,bus2=RML1060101327.1.0,Phases=1,Linecode=CABBTG02_4_1,Length=0.017000000,Units=km
new line.RML10101349 bus1=BBT138121195.1.3.0,bus2=RML1060101349.1.3.0,Phases=2,Linecode=CABBTG05_4_2,Length=0.017000000,Units=km
new line.RML10101360 bus1=BBT4468816.1.0,bus2=RML1060101360.1.0,Phases=1,Linecode=CABBTG02_4_1,Length=0.017000000,Units=km
new line.RML10101366 bus1=BBT18542358.1.0,bus2=RML1060101366.1.0,Phases=1,Linecode=CABBTG02_4_1,Length=0.017000000,Units=km
new line.RML10101389 bus1=BBT157635774.1.2.0,bus2=RML1060101389.1.2.0,Phases=2,Linecode=CABBTG05_4_2,Length=0.017000000,Units=km
new line.RML10101410 bus1=BBT11690464.1.2.0,bus2=RML1060101410.1.2.0,Phases=2,Linecode=CABBTG05_4_2,Length=0.017000000,Units=km
new line.RML10101445 bus1=BBT453959.3.0,bus2=RML1060101445.3.0,Phases=1,Linecode=CABBTG02_4_1,Length=0.017000000,Units=km
new line.RML10101516 bus1=BBT149333418.1.0,bus2=RML1060101516.1.0,Phases=1,Linecode=CABBTG02_4_1,Length=0.017000000,Units=km
new line.RML10101519 bus1=BBT454183.2.0,bus2=RML1060101519.2.0,Phases=1,Linecode=CABBTG02_4_1,Length=0.017000000,Units=km
new line.RML10101521 bus1=BBT454183.3.0,bus2=RML1060101521.3.0,Phases=1,Linecode=CABBTG02_4_1,Length=0.017000000,Units=km
new line.RML10101525 bus1=BBT138092831.1.2.0,bus2=RML1060101525.1.2.0,Phases=2,Linecode=CABBTG05_4_2,Length=0.017000000,Units=km
new line.RML10101586 bus1=BBT454302.1.0,bus2=RML1060101586.1.0,Phases=1,Linecode=CABBTG02_4_1,Length=0.017000000,Units=km
new line.RML10101722 bus1=BBT138094952.1.2.0,bus2=RML1060101722.1.2.0,Phases=2,Linecode=CABBTG13_4_2,Length=0.017000000,Units=km
new line.RML10102064 bus1=BBT130251844.2.0,bus2=RML1060102064.2.0,Phases=1,Linecode=CABBTG02_4_1,Length=0.017000000,Units=km
new line.RML10102141 bus1=BBT138090136.1.3.0,bus2=RML1060102141.1.3.0,Phases=2,Linecode=CABBTG13_4_2,Length=0.017000000,Units=km
new line.RML10102142 bus1=BBT3920702.1.0,bus2=RML1060102142.1.0,Phases=1,Linecode=CABBTG02_4_1,Length=0.017000000,Units=km
new line.RML10131027 bus1=BBT6568921.3.0,bus2=RML1060131027.3.0,Phases=1,Linecode=CABBTG02_4_1,Length=0.017000000,Units=km
new line.RML10131031 bus1=BBT6024643.2.0,bus2=RML1060131031.2.0,Phases=1,Linecode=CABBTG02_4_1,Length=0.017000000,Units=km
new line.RML10131032 bus1=BBT11686621.2.3.0,bus2=RML1060131032.2.3.0,Phases=2,Linecode=CABBTG05_4_2,Length=0.017000000,Units=km
new line.RML10131097 bus1=BBT138112970.1.2.0,bus2=RML1060131097.1.2.0,Phases=2,Linecode=CABBTG05_4_2,Length=0.017000000,Units=km
new line.RML10133916 bus1=BBT5958360.1.0,bus2=RML1060133916.1.0,Phases=1,Linecode=CABBTG02_4_1,Length=0.017000000,Units=km
new line.RML10162615 bus1=BBT138121202.1.0,bus2=RML1060162615.1.0,Phases=1,Linecode=CABBTG02_4_1,Length=0.017000000,Units=km
new line.RML10162644 bus1=BBT454351.1.2.0,bus2=RML1060162644.1.2.0,Phases=2,Linecode=CABBTG05_4_2,Length=0.017000000,Units=km
new line.RML10163298 bus1=BBT3847265.2.0,bus2=RML1060163298.2.0,Phases=1,Linecode=CABBTG02_4_1,Length=0.017000000,Units=km
new line.RML10163308 bus1=BBT138119879.1.2.0,bus2=RML1060163308.1.2.0,Phases=2,Linecode=CABBTG05_4_2,Length=0.017000000,Units=km
new line.RML10163313 bus1=BBT133372983.1.0,bus2=RML1060163313.1.0,Phases=1,Linecode=CABBTG02_4_1,Length=0.017000000,Units=km
new line.RML10163315 bus1=BBT133372983.1.2.0,bus2=RML1060163315.1.2.0,Phases=2,Linecode=CABBTG05_4_2,Length=0.017000000,Units=km
new line.RML10163374 bus1=BBT7218430.2.0,bus2=RML1060163374.2.0,Phases=1,Linecode=CABBTG02_4_1,Length=0.017000000,Units=km
new line.RML10164128 bus1=BBT149986363.1.0,bus2=RML1060164128.1.0,Phases=1,Linecode=CABBTG02_4_1,Length=0.017000000,Units=km
new line.RML10190918 bus1=BBT94858353.3.0,bus2=RML1060190918.3.0,Phases=1,Linecode=CABBTG02_4_1,Length=0.017000000,Units=km
new line.RML10191019 bus1=BBT73593508.2.0,bus2=RML1060191019.2.0,Phases=1,Linecode=CABBTG02_4_1,Length=0.017000000,Units=km
new line.RML10191037 bus1=BBT61000571.1.0,bus2=RML1060191037.1.0,Phases=1,Linecode=CABBTG02_4_1,Length=0.017000000,Units=km
new line.RML10191086 bus1=BBT7599839.2.0,bus2=RML1060191086.2.0,Phases=1,Linecode=CABBTG02_4_1,Length=0.017000000,Units=km
new line.RML10191440 bus1=BBT440638.1.0,bus2=RML1060191440.1.0,Phases=1,Linecode=CABBTG02_4_1,Length=0.017000000,Units=km
new line.RML10191480 bus1=BBT8145622.2.0,bus2=RML1060191480.2.0,Phases=1,Linecode=CABBTG02_4_1,Length=0.017000000,Units=km
new line.RML10051360 bus1=BBT4872282.1.2.3.0,bus2=RML1060051360.1.2.3.0,Phases=3,Linecode=CABBTG06_4_3,Length=0.017000000,Units=km
new line.RML10051364 bus1=BBT439966.2.3.0,bus2=RML1060051364.2.3.0,Phases=2,Linecode=CABBTG05_4_2,Length=0.017000000,Units=km
new line.RML10051394 bus1=BBT11686621.1.2.0,bus2=RML1060051394.1.2.0,Phases=2,Linecode=CABBTG05_4_2,Length=0.017000000,Units=km
new line.RML10051447 bus1=BBT11690457.3.0,bus2=RML1060051447.3.0,Phases=1,Linecode=CABBTG02_4_1,Length=0.017000000,Units=km
new line.RML10051451 bus1=BBT447351.1.2.0,bus2=RML1060051451.1.2.0,Phases=2,Linecode=CABBTG05_4_2,Length=0.017000000,Units=km
new line.RML10051524 bus1=BBT133367453.2.0,bus2=RML1060051524.2.0,Phases=1,Linecode=CABBTG02_4_1,Length=0.017000000,Units=km
new line.RML10051540 bus1=BBT5382918.1.0,bus2=RML1060051540.1.0,Phases=1,Linecode=CABBTG02_4_1,Length=0.017000000,Units=km
new line.RML10052099 bus1=BBT148190158.1.2.0,bus2=RML1060052099.1.2.0,Phases=2,Linecode=CABBTG05_4_2,Length=0.020000000,Units=km
new line.RML10052143 bus1=BBT90929694.3.0,bus2=RML1060052143.3.0,Phases=1,Linecode=CABBTG02_4_1,Length=0.017000000,Units=km
new line.RML10052219 bus1=BBT3846586.1.0,bus2=RML1060052219.1.0,Phases=1,Linecode=CABBTG02_4_1,Length=0.017000000,Units=km
new line.RML10052287 bus1=BBT448562.1.2.3.0,bus2=RML1060052287.1.2.3.0,Phases=3,Linecode=CABBTG07_4_3,Length=0.017000000,Units=km
new line.RML10052294 bus1=BBT448037.2.0,bus2=RML1060052294.2.0,Phases=1,Linecode=CABBTG02_4_1,Length=0.017000000,Units=km
new line.RML10052295 bus1=BBT4468739.1.2.0,bus2=RML1060052295.1.2.0,Phases=2,Linecode=CABBTG05_4_2,Length=0.017000000,Units=km
new line.RML10052315 bus1=BBT6568900.1.2.0,bus2=RML1060052315.1.2.0,Phases=2,Linecode=CABBTG13_4_2,Length=0.017000000,Units=km
new line.RML10052454 bus1=BBT130251851.3.0,bus2=RML1060052454.3.0,Phases=1,Linecode=CABBTG02_4_1,Length=0.017000000,Units=km
new line.RML10052455 bus1=BBT4872191.3.0,bus2=RML1060052455.3.0,Phases=1,Linecode=CABBTG02_4_1,Length=0.017000000,Units=km
new line.RML10052949 bus1=BBT148512700.1.0,bus2=RML1060052949.1.0,Phases=1,Linecode=CABBTG02_4_1,Length=0.017000000,Units=km
new line.RML10053024 bus1=BBT3846600.1.2.0,bus2=RML1060053024.1.2.0,Phases=2,Linecode=CABBTG05_4_2,Length=0.017000000,Units=km
new line.RML10053043 bus1=BBT78954787.2.0,bus2=RML1060053043.2.0,Phases=1,Linecode=CABBTG02_4_1,Length=0.017000000,Units=km
new line.RML10054466 bus1=BBT148561934.1.0,bus2=RML1060054466.1.0,Phases=1,Linecode=CABBTG01_4_1,Length=0.017000000,Units=km
new line.RML10054593 bus1=BBT94858353.1.0,bus2=RML1060054593.1.0,Phases=1,Linecode=CABBTG02_4_1,Length=0.017000000,Units=km
new line.RML10054596 bus1=BBT115693580.2.0,bus2=RML1060054596.2.0,Phases=1,Linecode=CABBTG02_4_1,Length=0.017000000,Units=km
new line.RML10054671 bus1=BBT7599832.2.0,bus2=RML1060054671.2.0,Phases=1,Linecode=CABBTG02_4_1,Length=0.017000000,Units=km
new line.RML10054673 bus1=BBT7599832.2.3.0,bus2=RML1060054673.2.3.0,Phases=2,Linecode=CABBTG05_4_2,Length=0.017000000,Units=km
new line.RML10054678 bus1=BBT6568907.2.0,bus2=RML1060054678.2.0,Phases=1,Linecode=CABBTG02_4_1,Length=0.017000000,Units=km
new line.RML10054698 bus1=BBT450802.2.3.0,bus2=RML1060054698.2.3.0,Phases=2,Linecode=CABBTG05_4_2,Length=0.017000000,Units=km
new line.RML10054717 bus1=BBT451222.1.3.0,bus2=RML1060054717.1.3.0,Phases=2,Linecode=CABBTG05_4_2,Length=0.017000000,Units=km
new line.RML10081790 bus1=BBT448849.1.3.0,bus2=RML1060081790.1.3.0,Phases=2,Linecode=CABBTG05_4_2,Length=0.017000000,Units=km
new line.RML10081792 bus1=BBT448849.2.0,bus2=RML1060081792.2.0,Phases=1,Linecode=CABBTG02_4_1,Length=0.017000000,Units=km
new line.RML10081942 bus1=BBT450025.3.0,bus2=RML1060081942.3.0,Phases=1,Linecode=CABBTG02_4_1,Length=0.017000000,Units=km
new line.RML10082460 bus1=BBT138098991.1.0,bus2=RML1060082460.1.0,Phases=1,Linecode=CABBTG02_4_1,Length=0.017000000,Units=km
new line.RML10082556 bus1=BBT6568907.2.0,bus2=RML1060082556.2.0,Phases=1,Linecode=CABBTG02_4_1,Length=0.017000000,Units=km
new line.RML10082571 bus1=BBT3850268.2.0,bus2=RML1060082571.2.0,Phases=1,Linecode=CABBTG02_4_1,Length=0.017000000,Units=km
new line.RML10082592 bus1=BBT453665.1.2.0,bus2=RML1060082592.1.2.0,Phases=2,Linecode=CABBTG13_4_2,Length=0.017000000,Units=km
new line.RML10082669 bus1=BBT455114.2.0,bus2=RML1060082669.2.0,Phases=1,Linecode=CABBTG02_4_1,Length=0.017000000,Units=km
new line.RML10083164 bus1=BBT567660.1.2.0,bus2=RML1060083164.1.2.0,Phases=2,Linecode=CABBTG05_4_2,Length=0.017000000,Units=km
new line.RML10083177 bus1=BBT115693580.2.3.0,bus2=RML1060083177.2.3.0,Phases=2,Linecode=CABBTG05_4_2,Length=0.017000000,Units=km
new line.RML10173164 bus1=BBT11689540.1.2.0,bus2=RML1060173164.1.2.0,Phases=2,Linecode=CABBTG05_4_2,Length=0.017000000,Units=km
new line.RML10173173 bus1=BBT138092789.1.2.0,bus2=RML1060173173.1.2.0,Phases=2,Linecode=CABBTG05_4_2,Length=0.017000000,Units=km
new line.RML10173191 bus1=BBT149334701.3.0,bus2=RML1060173191.3.0,Phases=1,Linecode=CABBTG02_4_1,Length=0.017000000,Units=km
new line.RML10173211 bus1=BBT6568781.1.0,bus2=RML1060173211.1.0,Phases=1,Linecode=CABBTG02_4_1,Length=0.017000000,Units=km
new line.RML10173217 bus1=BBT592300.2.0,bus2=RML1060173217.2.0,Phases=1,Linecode=CABBTG02_4_1,Length=0.017000000,Units=km
new line.RML10173260 bus1=BBT592300.1.0,bus2=RML1060173260.1.0,Phases=1,Linecode=CABBTG02_4_1,Length=0.017000000,Units=km
new line.RML10173269 bus1=BBT5238795.1.2.3.0,bus2=RML1060173269.1.2.3.0,Phases=3,Linecode=CABBTG07_4_3,Length=0.017000000,Units=km
new line.RML10173312 bus1=BBT3849799.2.0,bus2=RML1060173312.2.0,Phases=1,Linecode=CABBTG02_4_1,Length=0.017000000,Units=km
new line.RML10173356 bus1=BBT591957.1.0,bus2=RML1060173356.1.0,Phases=1,Linecode=CABBTG02_4_1,Length=0.017000000,Units=km
new line.RML10173371 bus1=BBT445853.2.0,bus2=RML1060173371.2.0,Phases=1,Linecode=CABBTG02_4_1,Length=0.017000000,Units=km
new line.RML10173461 bus1=BBT138092747.1.2.0,bus2=RML1060173461.1.2.0,Phases=2,Linecode=CABBTG05_4_2,Length=0.017000000,Units=km
new line.RML10173479 bus1=BBT5958367.1.2.0,bus2=RML1060173479.1.2.0,Phases=2,Linecode=CABBTG05_4_2,Length=0.017000000,Units=km
new line.RML10173487 bus1=BBT3850303.1.0,bus2=RML1060173487.1.0,Phases=1,Linecode=CABBTG02_4_1,Length=0.017000000,Units=km
new line.RML10173507 bus1=BBT133372990.1.2.0,bus2=RML1060173507.1.2.0,Phases=2,Linecode=CABBTG05_4_2,Length=0.017000000,Units=km
new line.RML10173510 bus1=BBT133372990.1.2.0,bus2=RML1060173510.1.2.0,Phases=2,Linecode=CABBTG05_4_2,Length=0.017000000,Units=km
new line.RML10173656 bus1=BBT138095022.1.2.0,bus2=RML1060173656.1.2.0,Phases=2,Linecode=CABBTG05_4_2,Length=0.017000000,Units=km
new line.RML10206282 bus1=BBT450816.1.2.3.0,bus2=RML1060206282.1.2.3.0,Phases=3,Linecode=CABBTG06_4_3,Length=0.017000000,Units=km
new line.RML10206285 bus1=BBT11684626.1.2.0,bus2=RML1060206285.1.2.0,Phases=2,Linecode=CABBTG05_4_2,Length=0.017000000,Units=km