new line.TR10057097 bus1=BMT98427905.2,bus2=BMT6086194B.2,Phases=1,Linecode=CAB202_3_1,Length=0.570360000,Units=km
new line.TR10057104 bus1=BMT98427905.2,bus2=BMT98427919.2,Phases=1,Linecode=CAB202_3_1,Length=0.085730000,Units=km
new line.TR10057111 bus1=BMT6086194B.2,bus2=BMT98427912.2,Phases=1,Linecode=CAB202_3_1,Length=0.033110000,Units=km
new line.TR10057118 bus1=BMT98427912.2,bus2=BMT6086215B.2,Phases=1,Linecode=CAB202_3_1,Length=0.014770000,Units=km
new line.TR10057132 bus1=BMT6086215B.2,bus2=BMT98427926.2,Phases=1,Linecode=CAB202_3_1,Length=0.214450000,Units=km
new line.TR10057174 bus1=BMT98427611.2,bus2=BMT98427618.2,Phases=1,Linecode=CAB202_3_1,Length=0.288670000,Units=km
new line.TR10057181 bus1=BMT98427618.2,bus2=BMT98427625.2,Phases=1,Linecode=CAB103_3_1,Length=0.023020000,Units=km
new line.TR10057188 bus1=BMT98427618.2,bus2=BMT98427632.2,Phases=1,Linecode=CAB202_3_1,Length=0.369940000,Units=km
new line.TR10057195 bus1=BMT98427632.2,bus2=BMT98427639.2,Phases=1,Linecode=CAB103_3_1,Length=0.061130000,Units=km
new line.TR10057202 bus1=BMT98427632.2,bus2=BMT98427646.2,Phases=1,Linecode=CAB202_3_1,Length=0.317160000,Units=km
new line.TR10057230 bus1=BMT98427646.2,bus2=BMT6086404B.2,Phases=1,Linecode=CAB202_3_1,Length=0.034930000,Units=km
new line.TR10057237 bus1=BMT98427646.2,bus2=BMT98427660.2,Phases=1,Linecode=CAB202_3_1,Length=0.135600000,Units=km
new line.TR10057244 bus1=BMT98427646.2,bus2=BMT6087146B.2,Phases=1,Linecode=CAB202_3_1,Length=0.003610000,Units=km
new line.TR10057251 bus1=BMT6086404B.2,bus2=BMT98427653.2,Phases=1,Linecode=CAB202_3_1,Length=0.383300000,Units=km
new line.TR10057258 bus1=BMT6086411B.2,bus2=BMT98427667.2,Phases=1,Linecode=CAB202_3_1,Length=0.344600000,Units=km
new line.TR10057265 bus1=BMT98427653.2,bus2=BMT98427674.2,Phases=1,Linecode=CAB202_3_1,Length=0.184550000,Units=km
new line.TR10057272 bus1=BMT98427653.2,bus2=BMT6086453B.2,Phases=1,Linecode=CAB202_3_1,Length=0.372600000,Units=km
new line.TR10057279 bus1=BMT6086453B.2,bus2=BMT6086460B.2,Phases=1,Linecode=CAB202_3_1,Length=0.107070000,Units=km
new line.TR10057286 bus1=BMT6086460B.2,bus2=BMT98427681.2,Phases=1,Linecode=CAB202_3_1,Length=0.103080000,Units=km
new line.TR10057293 bus1=BMT98427681.2,bus2=BMT98427688.2,Phases=1,Linecode=CAB202_3_1,Length=0.242050000,Units=km
new line.TR10057300 bus1=BMT98427681.2,bus2=BMT6086495B.2,Phases=1,Linecode=CAB202_3_1,Length=0.175420000,Units=km
new line.TR10057321 bus1=BMT6086495B.2,bus2=BMT6086502B.2,Phases=1,Linecode=CAB202_3_1,Length=0.371770000,Units=km
new line.TR10057328 bus1=BMT6086502B.2,bus2=BMT6086586B.2,Phases=1,Linecode=CAB202_3_1,Length=0.082490000,Units=km
new line.TR10057363 bus1=BMT6086586B.2,bus2=BMT6087244B.2,Phases=1,Linecode=CAB202_3_1,Length=0.127010000,Units=km
new line.TR10057370 bus1=BMT6086607B.2,bus2=BMT98427695.2,Phases=1,Linecode=CAB202_3_1,Length=0.087710000,Units=km
new line.TR10057377 bus1=BMT98427695.2,bus2=BMT6086670B.2,Phases=1,Linecode=CAB202_3_1,Length=0.083760000,Units=km
new line.TR10057384 bus1=BMT98427695.2,bus2=BMT98427709.2,Phases=1,Linecode=CAB202_3_1,Length=0.118430000,Units=km
new line.TR10057398 bus1=BMT6086670B.2,bus2=BMT6086691B.2,Phases=1,Linecode=CAB202_3_1,Length=0.349190000,Units=km
new line.TR10057405 bus1=BMT6086691B.2,bus2=BMT6086698B.2,Phases=1,Linecode=CAB202_3_1,Length=0.398920000,Units=km
new line.TR10057412 bus1=BMT6086698B.2,bus2=BMT98427702.2,Phases=1,Linecode=CAB202_3_1,Length=0.096050000,Units=km
new line.TR10057419 bus1=BMT98427583.2,bus2=BMT98427597.2,Phases=1,Linecode=CAB202_3_1,Length=0.039600000,Units=km
new line.TR10057433 bus1=BMT98427709.2,bus2=BMT98427716.2,Phases=1,Linecode=CAB103_3_1,Length=0.032760000,Units=km
new line.TR10057440 bus1=BMT98427709.2,bus2=BMT6086789B.2,Phases=1,Linecode=CAB202_3_1,Length=0.232250000,Units=km
new line.TR10057447 bus1=BMT6086789B.2,bus2=BMT98427723.2,Phases=1,Linecode=CAB202_3_1,Length=0.219200000,Units=km
new line.TR10057461 bus1=BMT98427723.2,bus2=BMT6086810B.2,Phases=1,Linecode=CAB202_3_1,Length=0.070010000,Units=km
new line.TR10057468 bus1=BMT98427723.2,bus2=BMT6087370B.2,Phases=1,Linecode=CAB202_3_1,Length=0.143390000,Units=km
new line.TR10057475 bus1=BMT6086810B.2,bus2=BMT6086817B.2,Phases=1,Linecode=CAB202_3_1,Length=0.056220000,Units=km
new line.TR10057482 bus1=BMT6086817B.2,bus2=BMT6086831B.2,Phases=1,Linecode=CAB202_3_1,Length=0.326320000,Units=km
new line.TR10057496 bus1=BMT6086831B.2,bus2=BMT98427730.2,Phases=1,Linecode=CAB202_3_1,Length=0.500260000,Units=km
new line.TR10057503 bus1=BMT98427730.2,bus2=BMT6086866B.2,Phases=1,Linecode=CAB202_3_1,Length=0.241860000,Units=km
new line.TR10057510 bus1=BMT98427730.2,bus2=BMT6087027B.2,Phases=1,Linecode=CAB202_3_1,Length=0.222510000,Units=km
new line.TR10057517 bus1=BMT98427842.2,bus2=BMT98427849.2,Phases=1,Linecode=CAB202_3_1,Length=0.184550000,Units=km
new line.TR10057524 bus1=BMT6086866B.2,bus2=BMT6086873B.2,Phases=1,Linecode=CAB202_3_1,Length=0.259370000,Units=km
new line.TR10057531 bus1=BMT6086873B.2,bus2=BMT6086880B.2,Phases=1,Linecode=CAB202_3_1,Length=0.244380000,Units=km
new line.TR10057538 bus1=BMT6086880B.2,bus2=BMT98427744.2,Phases=1,Linecode=CAB202_3_1,Length=0.037440000,Units=km
new line.TR10057545 bus1=BMT98427744.2,bus2=BMT6086894B.2,Phases=1,Linecode=CAB202_3_1,Length=0.371120000,Units=km
new line.TR10057552 bus1=BMT98427744.2,bus2=BMT98427765.2,Phases=1,Linecode=CAB202_3_1,Length=0.210040000,Units=km
new line.TR10057559 bus1=BMT6086894B.2,bus2=BMT98427758.2,Phases=1,Linecode=CAB202_3_1,Length=0.049400000,Units=km
new line.TR10057566 bus1=BMT98427765.2,bus2=BMT98427772.2,Phases=1,Linecode=CAB202_3_1,Length=0.137090000,Units=km
new line.TR10057573 bus1=BMT98427765.2,bus2=BMT6086929B.2,Phases=1,Linecode=CAB202_3_1,Length=0.024040000,Units=km
new line.TR10057580 bus1=BMT6086929B.2,bus2=BMT98427779.2,Phases=1,Linecode=CAB202_3_1,Length=0.056010000,Units=km
new line.TR10057587 bus1=BMT98427779.2,bus2=BMT98427786.2,Phases=1,Linecode=CAB202_3_1,Length=0.074800000,Units=km
new line.TR10057594 bus1=BMT98427779.2,bus2=BMT98427793.2,Phases=1,Linecode=CAB202_3_1,Length=0.272090000,Units=km
new line.TR10057601 bus1=BMT98427793.2,bus2=BMT98427800.2,Phases=1,Linecode=CAB103_3_1,Length=0.081690000,Units=km
new line.TR10057608 bus1=BMT98427793.2,bus2=BMT6086964B.2,Phases=1,Linecode=CAB202_3_1,Length=0.163350000,Units=km
new line.TR10057615 bus1=BMT6086964B.2,bus2=BMT98427807.2,Phases=1,Linecode=CAB202_3_1,Length=0.275070000,Units=km
new line.TR10057622 bus1=BMT98427807.2,bus2=BMT98427814.2,Phases=1,Linecode=CAB103_3_1,Length=0.037060000,Units=km
new line.TR10037532 bus1=BMT6048128B.3,bus2=BMT6048142B.3,Phases=1,Linecode=CAB202_3_1,Length=0.150330000,Units=km
new line.TR10037539 bus1=BMT6048135B.3,bus2=BMT6048128B.3,Phases=1,Linecode=CAB202_3_1,Length=0.038830000,Units=km
new line.TR10037546 bus1=BMT6048142B.3,bus2=BMT6048149B.3,Phases=1,Linecode=CAB202_3_1,Length=0.113360000,Units=km
new line.TR10037553 bus1=BMT6048149B.3,bus2=BMT6048156B.3,Phases=1,Linecode=CAB202_3_1,Length=0.114040000,Units=km
new line.TR10037560 bus1=BMT6048156B.3,bus2=BMT6048163B.3,Phases=1,Linecode=CAB202_3_1,Length=0.091530000,Units=km
new line.TR10037567 bus1=BMT6048163B.3,bus2=BMT6048170B.3,Phases=1,Linecode=CAB202_3_1,Length=0.094150000,Units=km
new line.TR10037574 bus1=BMT6048170B.3,bus2=BMT6048177B.3,Phases=1,Linecode=CAB202_3_1,Length=0.272620000,Units=km
new line.TR10037581 bus1=BMT6048177B.3,bus2=BMT6048184B.3,Phases=1,Linecode=CAB202_3_1,Length=0.081610000,Units=km
new line.TR10037588 bus1=BMT6048184B.3,bus2=BMT6048191B.3,Phases=1,Linecode=CAB202_3_1,Length=0.471330000,Units=km
new line.TR10037595 bus1=BMT6048191B.3,bus2=BMT98436277.3,Phases=1,Linecode=CAB202_3_1,Length=0.084290000,Units=km
new line.TR10037602 bus1=BMT98436277.3,bus2=BMT6048205B.3,Phases=1,Linecode=CAB202_3_1,Length=0.099820000,Units=km
new line.TR10037609 bus1=BMT98436277.3,bus2=BMT98436291.3,Phases=1,Linecode=CAB202_3_1,Length=0.208660000,Units=km
new line.TR10037616 bus1=BMT6048205B.3,bus2=BMT6048219B.3,Phases=1,Linecode=CAB202_3_1,Length=0.519700000,Units=km
new line.TR10037623 bus1=BMT6048219B.3,bus2=BMT6048240B.3,Phases=1,Linecode=CAB202_3_1,Length=0.031150000,Units=km
new line.TR10037644 bus1=BMT6048240B.3,bus2=BMT6048247B.3,Phases=1,Linecode=CAB202_3_1,Length=0.041040000,Units=km
new line.TR10037651 bus1=BMT6048247B.3,bus2=BMT6048254B.3,Phases=1,Linecode=CAB202_3_1,Length=0.524260000,Units=km
new line.TR10037658 bus1=BMT6048254B.3,bus2=BMT98436284.3,Phases=1,Linecode=CAB202_3_1,Length=0.018600000,Units=km
new line.TR10037665 bus1=BMT98436284.3,bus2=BMT98436298.3,Phases=1,Linecode=CAB202_3_1,Length=0.268400000,Units=km
new line.TR10037672 bus1=BMT98436389.3,bus2=BMT98436396.3,Phases=1,Linecode=CAB202_3_1,Length=0.433770000,Units=km
new line.TR10037679 bus1=BMT98436361.3,bus2=BMT98436368.3,Phases=1,Linecode=CAB202_3_1,Length=0.057870000,Units=km
new line.TR10037686 bus1=BMT98436298.3,bus2=BMT98436305.3,Phases=1,Linecode=CAB202_3_1,Length=0.123740000,Units=km
new line.TR10038568 bus1=BMT98436368.3,bus2=BMT98436375.3,Phases=1,Linecode=CAB103_3_1,Length=0.052340000,Units=km
new line.TR10038575 bus1=BMT98436368.3,bus2=BMT98436382.3,Phases=1,Linecode=CAB202_3_1,Length=0.135560000,Units=km
new line.TR10038883 bus1=BMT98436305.3,bus2=BMT6049899B.3,Phases=1,Linecode=CAB202_3_1,Length=0.183000000,Units=km
new line.TR10038890 bus1=BMT98436305.3,bus2=BMT98436319.3,Phases=1,Linecode=CAB202_3_1,Length=0.183610000,Units=km
new line.TR10038897 bus1=BMT6049899B.3,bus2=BMT98436312.3,Phases=1,Linecode=CAB202_3_1,Length=0.096250000,Units=km
new line.TR10038904 bus1=BMT98436333.3,bus2=BMT6049913B.3,Phases=1,Linecode=CAB202_3_1,Length=0.141420000,Units=km
new line.TR10038911 bus1=BMT98436312.3,bus2=BMT6049976B.3,Phases=1,Linecode=CAB202_3_1,Length=0.314240000,Units=km
new line.TR10038918 bus1=BMT6049913B.3,bus2=BMT6049920B.3,Phases=1,Linecode=CAB202_3_1,Length=0.154870000,Units=km
new line.TR10038925 bus1=BMT6049920B.3,bus2=BMT6050011B.3,Phases=1,Linecode=CAB202_3_1,Length=0.224890000,Units=km
new line.TR10038932 bus1=BMT6049976B.3,bus2=BMT6049983B.3,Phases=1,Linecode=CAB202_3_1,Length=0.047710000,Units=km
new line.TR10038939 bus1=BMT6049983B.3,bus2=BMT6049990B.3,Phases=1,Linecode=CAB202_3_1,Length=0.161720000,Units=km
new line.TR10038946 bus1=BMT6049990B.3,bus2=BMT98436326.3,Phases=1,Linecode=CAB202_3_1,Length=0.357490000,Units=km
new line.TR10038960 bus1=BMT6050011B.3,bus2=BMT6050018B.3,Phases=1,Linecode=CAB202_3_1,Length=0.294560000,Units=km
new line.TR10038967 bus1=BMT6050018B.3,bus2=BMT6050025B.3,Phases=1,Linecode=CAB202_3_1,Length=0.132280000,Units=km
new line.TR10038974 bus1=BMT6050025B.3,bus2=BMT6050032B.3,Phases=1,Linecode=CAB202_3_1,Length=0.082610000,Units=km
new line.TR10038981 bus1=BMT6050032B.3,bus2=BMT98436340.3,Phases=1,Linecode=CAB202_3_1,Length=0.038330000,Units=km
new line.TR10039093 bus1=BMT98436340.3,bus2=BMT98436347.3,Phases=1,Linecode=CAB202_3_1,Length=0.253500000,Units=km
new line.TR10039100 bus1=BMT98436340.3,bus2=BMT98436354.3,Phases=1,Linecode=CAB103_3_1,Length=0.041880000,Units=km
new line.TR10039156 bus1=BMT98436396.3,bus2=BMT6050466B.3,Phases=1,Linecode=CAB202_3_1,Length=0.081410000,Units=km
new line.TR10039163 bus1=BMT6050466B.3,bus2=BMT6050480B.3,Phases=1,Linecode=CAB202_3_1,Length=0.084650000,Units=km
new line.TR10039170 bus1=BMT6050480B.3,bus2=BMT98436403.3,Phases=1,Linecode=CAB202_3_1,Length=0.064760000,Units=km
new line.TR10039191 bus1=BMT98436403.3,bus2=BMT6050501B.3,Phases=1,Linecode=CAB202_3_1,Length=0.116930000,Units=km
new line.TR10039198 bus1=BMT98436403.3,bus2=BMT98436424.3,Phases=1,Linecode=CAB103_3_1,Length=0.061190000,Units=km
new line.TR10039205 bus1=BMT6050501B.3,bus2=BMT98436417.3,Phases=1,Linecode=CAB202_3_1,Length=0.085090000,Units=km
new line.TR10050860 bus1=BMT6074637B.1,bus2=BMT6074644B.1,Phases=1,Linecode=CAB202_3_1,Length=0.366720000,Units=km
new line.TR10050867 bus1=BMT6074644B.1,bus2=BMT6074651B.1,Phases=1,Linecode=CAB202_3_1,Length=0.117400000,Units=km
new line.TR10050874 bus1=BMT6074651B.1,bus2=BMT6074658B.1,Phases=1,Linecode=CAB202_3_1,Length=0.224090000,Units=km
new line.TR10050881 bus1=BMT6074658B.1,bus2=BMT6074665B.1,Phases=1,Linecode=CAB202_3_1,Length=0.373300000,Units=km
new line.TR10050888 bus1=BMT6074665B.1,bus2=BMT98431181.1,Phases=1,Linecode=CAB202_3_1,Length=0.317100000,Units=km
new line.TR10050895 bus1=BMT98431181.1,bus2=BMT98431195.1,Phases=1,Linecode=CAB202_3_1,Length=0.089330000,Units=km
new line.TR10050902 bus1=BMT98431181.1,bus2=BMT6496408B.1,Phases=1,Linecode=CAB202_3_1,Length=0.134860000,Units=km
new line.TR10200779 bus1=BMT6360902B.1.2.3,bus2=BMT154144349.1.2.3,Phases=3,Linecode=CAB204_3_3,Length=0.108570000,Units=km
new line.TR10200786 bus1=BMT154144349.1.2.3,bus2=BMT6360916B.1.2.3,Phases=3,Linecode=CAB204_3_3,Length=0.098520000,Units=km
new line.TR10200793 bus1=BMT154144398.1,bus2=BMT154144399.1,Phases=1,Linecode=CAB202_3_1,Length=0.051980000,Units=km
new line.TR10200814 bus1=BMT168731450.2,bus2=BMT168731451.2,Phases=1,Linecode=CAB204_3_3,Length=0.034720000,Units=km
new line.TR10200821 bus1=BMT168731451.2,bus2=BMT6360972B.2,Phases=1,Linecode=CAB202_3_1,Length=0.015000000,Units=km
new line.TR10200828 bus1=BMT168731449.2,bus2=BMT168731450.2,Phases=1,Linecode=CAB204_3_3,Length=0.077170000,Units=km
new line.TR10200835 bus1=BMT168731450.2,bus2=BMT168731452.2,Phases=1,Linecode=CAB103_3_1,Length=0.033620000,Units=km
new line.TR10200849 bus1=BMT168721029.2,bus2=BMT6382700B.2,Phases=1,Linecode=CAB202_3_1,Length=0.208630000,Units=km
new line.TR10200856 bus1=BMT154144399.1,bus2=BMT154144400.1,Phases=1,Linecode=CAB202_3_1,Length=0.385670000,Units=km
new line.TR10200863 bus1=BMT154144399.1,bus2=BMT154144401.1,Phases=1,Linecode=CAB202_3_1,Length=0.161660000,Units=km
new line.TR10200870 bus1=BMT6360972B.2,bus2=BMT168731453.2,Phases=1,Linecode=CAB202_3_1,Length=0.149730000,Units=km
new line.TR10200877 bus1=BMT168752508.1.2.3,bus2=BMT6361000B.1.2.3,Phases=3,Linecode=CAB204_3_3,Length=0.183010000,Units=km
new line.TR10200884 bus1=BMT168752508.2,bus2=BMT168752511.2,Phases=1,Linecode=CAB103_3_1,Length=0.055450000,Units=km
new line.TR10200891 bus1=BMT6361000B.1.2.3,bus2=BMT6361007B.1.2.3,Phases=3,Linecode=CAB204_3_3,Length=0.144140000,Units=km
new line.TR10200912 bus1=BMT168731416.2,bus2=BMT168731417.2,Phases=1,Linecode=CAB202_3_1,Length=0.094560000,Units=km
new line.TR10200919 bus1=BMT168731416.2,bus2=BMT168731418.2,Phases=1,Linecode=CAB202_3_1,Length=0.183430000,Units=km
new line.TR10200926 bus1=BMT6361042B.1.2.3,bus2=BMT168752505.1.2.3,Phases=3,Linecode=CAB204_3_3,Length=0.215690000,Units=km
new line.TR10200933 bus1=BMT168752505.1.2.3,bus2=BMT6361056B.1.2.3,Phases=3,Linecode=CAB204_3_3,Length=0.060930000,Units=km
new line.TR10200940 bus1=BMT168752505.1,bus2=BMT168752507.1,Phases=1,Linecode=CAB202_3_1,Length=0.087010000,Units=km
new line.TR10200947 bus1=BMT6361056B.1.2.3,bus2=BMT168752506.1.2.3,Phases=3,Linecode=CAB204_3_3,Length=0.110500000,Units=km
new line.TR10200954 bus1=BMT168752506.1.2.3,bus2=BMT168752508.1.2.3,Phases=3,Linecode=CAB204_3_3,Length=0.251470000,Units=km
new line.TR10200961 bus1=BMT168752506.3,bus2=BMT6361070B.3,Phases=1,Linecode=CAB202_3_1,Length=0.206340000,Units=km
new line.TR10200968 bus1=BMT6361070B.3,bus2=BMT168752509.3,Phases=1,Linecode=CAB202_3_1,Length=0.060010000,Units=km
new line.TR10201696 bus1=BMT98430558.2,bus2=BMT98430565.2,Phases=1,Linecode=CAB202_3_1,Length=0.305140000,Units=km
new line.TR10201703 bus1=BMT98430558.2,bus2=BMT98430572.2,Phases=1,Linecode=CAB202_3_1,Length=0.295520000,Units=km
new line.TR10201710 bus1=BMT98430565.2,bus2=BMT98430579.2,Phases=1,Linecode=CAB202_3_1,Length=0.468280000,Units=km
new line.TR10201717 bus1=BMT98430565.2,bus2=BMT6362274B.2,Phases=1,Linecode=CAB202_3_1,Length=0.029160000,Units=km
new line.TR10201724 bus1=BMT98430565.2,bus2=BMT6362302B.2,Phases=1,Linecode=CAB202_3_1,Length=0.001420000,Units=km
new line.TR10201731 bus1=BMT98430579.2,bus2=BMT6362232B.2,Phases=1,Linecode=CAB202_3_1,Length=0.278650000,Units=km
new line.TR10201738 bus1=BMT98430579.2,bus2=BMT98430607.2,Phases=1,Linecode=CAB202_3_1,Length=0.110010000,Units=km
new line.TR10201745 bus1=BMT6362232B.2,bus2=BMT6362239B.2,Phases=1,Linecode=CAB202_3_1,Length=0.027300000,Units=km
new line.TR10201752 bus1=BMT6362239B.2,bus2=BMT6362246B.2,Phases=1,Linecode=CAB202_3_1,Length=0.352670000,Units=km
new line.TR10201759 bus1=BMT6362246B.2,bus2=BMT98430600.2,Phases=1,Linecode=CAB202_3_1,Length=0.152200000,Units=km
new line.TR10201766 bus1=BMT98430600.2,bus2=BMT98430614.2,Phases=1,Linecode=CAB202_3_1,Length=0.365950000,Units=km
new line.TR10201773 bus1=BMT98430600.2,bus2=BMT6459238B.2,Phases=1,Linecode=CAB202_3_1,Length=0.187620000,Units=km
new line.TR10201780 bus1=BMT6362274B.2,bus2=BMT6362281B.2,Phases=1,Linecode=CAB202_3_1,Length=0.165040000,Units=km
new line.TR10201787 bus1=BMT6362281B.2,bus2=BMT98430586.2,Phases=1,Linecode=CAB202_3_1,Length=0.102910000,Units=km
new line.TR10201794 bus1=BMT6362302B.2,bus2=BMT98430593.2,Phases=1,Linecode=CAB202_3_1,Length=0.208920000,Units=km
new line.TR10206323 bus1=BMT6370345B.2,bus2=BMT168627203.2,Phases=1,Linecode=CAB202_3_1,Length=0.323600000,Units=km
new line.TR10206330 bus1=BMT168627203.2,bus2=BMT6370359B.2,Phases=1,Linecode=CAB202_3_1,Length=0.183930000,Units=km
new line.TR10206337 bus1=BMT168627203.2,bus2=BMT168627205.2,Phases=1,Linecode=CAB202_3_1,Length=0.101680000,Units=km
new line.TR10206344 bus1=BMT6370359B.2,bus2=BMT6370366B.2,Phases=1,Linecode=CAB202_3_1,Length=0.155990000,Units=km
new line.TR10206351 bus1=BMT6370366B.2,bus2=BMT168627204.2,Phases=1,Linecode=CAB202_3_1,Length=0.154030000,Units=km
new line.TR10208059 bus1=BMT6373040B.3,bus2=BMT6373054B.3,Phases=1,Linecode=CAB202_3_1,Length=0.071560000,Units=km
new line.TR10208066 bus1=BMT6373054B.3,bus2=BMT6373068B.3,Phases=1,Linecode=CAB202_3_1,Length=0.260290000,Units=km
new line.TR10208080 bus1=BMT6373075B.3,bus2=BMT6373089B.3,Phases=1,Linecode=CAB202_3_1,Length=0.165930000,Units=km
new line.TR10208087 bus1=BMT6373089B.3,bus2=BMT6373096B.3,Phases=1,Linecode=CAB202_3_1,Length=0.185070000,Units=km
new line.TR10208094 bus1=BMT6373096B.3,bus2=BMT6373103B.3,Phases=1,Linecode=CAB202_3_1,Length=0.096260000,Units=km
new line.TR10208101 bus1=BMT6373103B.3,bus2=BMT6373110B.3,Phases=1,Linecode=CAB202_3_1,Length=0.129620000,Units=km
new line.TR10208108 bus1=BMT6373110B.3,bus2=BMT6373117B.3,Phases=1,Linecode=CAB202_3_1,Length=0.176650000,Units=km
new line.TR10208115 bus1=BMT6373117B.3,bus2=BMT151095852.3,Phases=1,Linecode=CAB202_3_1,Length=0.265490000,Units=km
new line.TR10212882 bus1=BMT6380362B.2,bus2=BMT6380369B.2,Phases=1,Linecode=CAB202_3_1,Length=0.292780000,Units=km
new line.TR10212889 bus1=BMT6380369B.2,bus2=BMT6380376B.2,Phases=1,Linecode=CAB202_3_1,Length=0.040120000,Units=km
new line.TR10212896 bus1=BMT6380376B.2,bus2=BMT6380383B.2,Phases=1,Linecode=CAB202_3_1,Length=0.171310000,Units=km
new line.TR10212903 bus1=BMT6380383B.2,bus2=BMT6380390B.2,Phases=1,Linecode=CAB202_3_1,Length=0.485170000,Units=km
new line.TR10212910 bus1=BMT6380390B.2,bus2=BMT6380397B.2,Phases=1,Linecode=CAB202_3_1,Length=0.018680000,Units=km
new line.TR10212917 bus1=BMT6380397B.2,bus2=BMT149383140.2,Phases=1,Linecode=CAB202_3_1,Length=0.252770000,Units=km
new line.TR10212924 bus1=BMT149383140.2,bus2=BMT149383141.2,Phases=1,Linecode=CAB202_3_1,Length=0.090810000,Units=km
new line.TR10212931 bus1=BMT149383140.2,bus2=BMT149383142.2,Phases=1,Linecode=CAB202_3_1,Length=0.272090000,Units=km
new line.TR10213806 bus1=BMT6382070B.2,bus2=BMT98430719.2,Phases=1,Linecode=CAB202_3_1,Length=0.135840000,Units=km
new line.TR10213813 bus1=BMT6382084B.2,bus2=BMT6382070B.2,Phases=1,Linecode=CAB202_3_1,Length=0.146110000,Units=km
new line.TR10057629 bus1=BMT98427807.2,bus2=BMT98427821.2,Phases=1,Linecode=CAB202_3_1,Length=0.343180000,Units=km
new line.TR10057636 bus1=BMT98427821.2,bus2=BMT6086992B.2,Phases=1,Linecode=CAB202_3_1,Length=0.026930000,Units=km
new line.TR10057643 bus1=BMT98427821.2,bus2=BMT98427835.2,Phases=1,Linecode=CAB202_3_1,Length=0.184030000,Units=km
new line.TR10057650 bus1=BMT6086992B.2,bus2=BMT6087006B.2,Phases=1,Linecode=CAB202_3_1,Length=0.233240000,Units=km
new line.TR10057657 bus1=BMT6087006B.2,bus2=BMT98427828.2,Phases=1,Linecode=CAB202_3_1,Length=0.189280000,Units=km
new line.TR10057664 bus1=BMT6087027B.2,bus2=BMT6087034B.2,Phases=1,Linecode=CAB202_3_1,Length=0.112010000,Units=km
new line.TR10057671 bus1=BMT6087034B.2,bus2=BMT98427751.2,Phases=1,Linecode=CAB202_3_1,Length=0.208000000,Units=km
new line.TR10057678 bus1=BMT98427849.2,bus2=BMT98427856.2,Phases=1,Linecode=CAB202_3_1,Length=0.090610000,Units=km
new line.TR10057685 bus1=BMT98427849.2,bus2=BMT6087076B.2,Phases=1,Linecode=CAB202_3_1,Length=0.300090000,Units=km
new line.TR10057692 bus1=BMT6087076B.2,bus2=BMT98427863.2,Phases=1,Linecode=CAB202_3_1,Length=0.142900000,Units=km
new line.TR10057741 bus1=BMT6087146B.2,bus2=BMT6086411B.2,Phases=1,Linecode=CAB202_3_1,Length=0.027300000,Units=km
new line.TR10057804 bus1=BMT6087244B.2,bus2=BMT6086607B.2,Phases=1,Linecode=CAB202_3_1,Length=0.241500000,Units=km
new line.TR10057895 bus1=BMT6087370B.2,bus2=BMT98427737.2,Phases=1,Linecode=CAB202_3_1,Length=0.113850000,Units=km
new line.TR10070691 bus1=BMT6112073B.1.2.3,bus2=BMT6112087B.1.2.3,Phases=3,Linecode=CABA06_3_3,Length=0.045700000,Units=km
new line.TR10070705 bus1=BMT6112087B.1.2.3,bus2=BMT6112101B.1.2.3,Phases=3,Linecode=CABA06_3_3,Length=0.040310000,Units=km
new line.TR10070712 bus1=BMT6112101B.1.2.3,bus2=BMT153290410.1.2.3,Phases=3,Linecode=CABA06_3_3,Length=0.046100000,Units=km
new line.TR10070726 bus1=BMT153290410.1.2.3,bus2=BMT153290412.1.2.3,Phases=3,Linecode=CABA06_3_3,Length=0.037580000,Units=km
new line.TR10296756 bus1=BMT159173059.3,bus2=BMT159173060.3,Phases=1,Linecode=CAB202_3_1,Length=0.020000000,Units=km
new line.TR10296763 bus1=BMT159173059.3,bus2=BMT6513880B.3,Phases=1,Linecode=CAB202_3_1,Length=0.229020000,Units=km
new line.TR10296770 bus1=BMT6513880B.3,bus2=BMT159173061.3,Phases=1,Linecode=CAB202_3_1,Length=0.374780000,Units=km
new line.TR10296777 bus1=BMT159173061.3,bus2=BMT6513894B.3,Phases=1,Linecode=CAB202_3_1,Length=0.456050000,Units=km
new line.TR10296784 bus1=BMT159173061.3,bus2=BMT159173063.3,Phases=1,Linecode=CAB202_3_1,Length=0.127460000,Units=km
new line.TR10296791 bus1=BMT6513894B.3,bus2=BMT159173062.3,Phases=1,Linecode=CAB202_3_1,Length=0.464070000,Units=km
new line.TR10305499 bus1=BMT6531387B.2,bus2=BMT6531394B.2,Phases=1,Linecode=CAB202_3_1,Length=0.154040000,Units=km
new line.TR10305506 bus1=BMT6531394B.2,bus2=BMT160789855.2,Phases=1,Linecode=CAB202_3_1,Length=0.162900000,Units=km
new line.TR10305513 bus1=BMT160789855.2,bus2=BMT98428220.2,Phases=1,Linecode=CAB202_3_1,Length=0.239260000,Units=km
new line.TR10305520 bus1=BMT160789855.2,bus2=BMT160789856.2,Phases=1,Linecode=CAB202_3_1,Length=0.117430000,Units=km
new line.TR10305527 bus1=BMT98428220.2,bus2=BMT6531422B.2,Phases=1,Linecode=CAB202_3_1,Length=0.143100000,Units=km
new line.TR10305534 bus1=BMT98428220.2,bus2=BMT160789858.2,Phases=1,Linecode=CAB103_3_1,Length=0.017490000,Units=km
new line.TR10305541 bus1=BMT98428388.2,bus2=BMT6531499B.2,Phases=1,Linecode=CAB202_3_1,Length=0.324240000,Units=km
new line.TR10305548 bus1=BMT6531422B.2,bus2=BMT6531429B.2,Phases=1,Linecode=CAB202_3_1,Length=0.283290000,Units=km
new line.TR10305555 bus1=BMT6531429B.2,bus2=BMT6531436B.2,Phases=1,Linecode=CAB202_3_1,Length=0.234490000,Units=km
new line.TR10305562 bus1=BMT6531436B.2,bus2=BMT6531443B.2,Phases=1,Linecode=CAB202_3_1,Length=0.035700000,Units=km
new line.TR10305569 bus1=BMT6531443B.2,bus2=BMT6531450B.2,Phases=1,Linecode=CAB202_3_1,Length=0.120340000,Units=km
new line.TR10305576 bus1=BMT6531450B.2,bus2=BMT160789857.2,Phases=1,Linecode=CAB202_3_1,Length=0.213040000,Units=km
new line.TR10305583 bus1=BMT160789857.2,bus2=BMT160789859.2,Phases=1,Linecode=CAB202_3_1,Length=0.260450000,Units=km
new line.TR10305590 bus1=BMT160789857.2,bus2=BMT160789860.2,Phases=1,Linecode=CAB103_3_1,Length=0.049730000,Units=km
new line.TR10305597 bus1=BMT160789859.2,bus2=BMT160789861.2,Phases=1,Linecode=CAB202_3_1,Length=0.107450000,Units=km
new line.TR10305604 bus1=BMT160789859.2,bus2=BMT160789862.2,Phases=1,Linecode=CAB202_3_1,Length=0.329420000,Units=km
new line.TR10305611 bus1=BMT6531499B.2,bus2=BMT98428395.2,Phases=1,Linecode=CAB202_3_1,Length=0.442040000,Units=km
new line.TR10305618 bus1=BMT98428395.2,bus2=BMT6531513B.2,Phases=1,Linecode=CAB202_3_1,Length=0.388640000,Units=km
new line.TR10305625 bus1=BMT98428395.2,bus2=BMT98428409.2,Phases=1,Linecode=CAB202_3_1,Length=0.205890000,Units=km
new line.TR10305632 bus1=BMT6531513B.2,bus2=BMT98428402.2,Phases=1,Linecode=CAB202_3_1,Length=0.066710000,Units=km
new line.TR10305639 bus1=BMT160789862.2,bus2=BMT6531541B.2,Phases=1,Linecode=CAB202_3_1,Length=0.044410000,Units=km
new line.TR10305646 bus1=BMT160789862.2,bus2=BMT160789864.2,Phases=1,Linecode=CAB103_3_1,Length=0.023090000,Units=km
new line.TR10305653 bus1=BMT6531541B.2,bus2=BMT6531548B.2,Phases=1,Linecode=CAB202_3_1,Length=0.432920000,Units=km
new line.TR10305660 bus1=BMT6531548B.2,bus2=BMT6531555B.2,Phases=1,Linecode=CAB202_3_1,Length=0.316110000,Units=km
new line.TR10305667 bus1=BMT6531555B.2,bus2=BMT6531562B.2,Phases=1,Linecode=CAB202_3_1,Length=0.144260000,Units=km
new line.TR10305674 bus1=BMT6531562B.2,bus2=BMT6531569B.2,Phases=1,Linecode=CAB202_3_1,Length=0.176680000,Units=km
new line.TR10305681 bus1=BMT6531569B.2,bus2=BMT6531576B.2,Phases=1,Linecode=CAB202_3_1,Length=0.046100000,Units=km
new line.TR10305688 bus1=BMT6531576B.2,bus2=BMT6531583B.2,Phases=1,Linecode=CAB202_3_1,Length=0.084030000,Units=km
new line.TR10305695 bus1=BMT6531583B.2,bus2=BMT160789863.2,Phases=1,Linecode=CAB202_3_1,Length=0.207180000,Units=km
new line.TR10305702 bus1=BMT160789863.2,bus2=BMT6531597B.2,Phases=1,Linecode=CAB202_3_1,Length=0.203660000,Units=km
new line.TR10305709 bus1=BMT160789863.2,bus2=BMT160789866.2,Phases=1,Linecode=CAB103_3_1,Length=0.069900000,Units=km
new line.TR10305716 bus1=BMT6531597B.2,bus2=BMT160789865.2,Phases=1,Linecode=CAB202_3_1,Length=0.344610000,Units=km
new line.TR10305723 bus1=BMT6531604B.2,bus2=BMT160789867.2,Phases=1,Linecode=CAB202_3_1,Length=0.168810000,Units=km
new line.TR10222143 bus1=BMT165560772.2,bus2=BMT165560773.2,Phases=1,Linecode=CAB202_3_1,Length=0.476900000,Units=km
new line.TR10222150 bus1=BMT165560772.2,bus2=BMT165560774.2,Phases=1,Linecode=CAB103_3_1,Length=0.081030000,Units=km
new line.TR10226721 bus1=BMT162284322.2,bus2=BMT6402034B.2,Phases=1,Linecode=CAB202_3_1,Length=0.452870000,Units=km
new line.TR10226728 bus1=BMT162284322.2,bus2=BMT162284324.2,Phases=1,Linecode=CAB103_3_1,Length=0.044600000,Units=km
new line.TR10226735 bus1=BMT6402034B.2,bus2=BMT162284323.2,Phases=1,Linecode=CAB202_3_1,Length=0.250850000,Units=km
new line.TR10226742 bus1=BMT162284323.2,bus2=BMT6402062B.2,Phases=1,Linecode=CAB202_3_1,Length=0.239050000,Units=km
new line.TR10226749 bus1=BMT6402062B.2,bus2=BMT162284325.2,Phases=1,Linecode=CAB202_3_1,Length=0.066470000,Units=km
new line.TR10229591 bus1=BMT6406584B.1.2.3,bus2=BMT6406591B.1.2.3,Phases=3,Linecode=CAB103_3_3,Length=0.039700000,Units=km
new line.TR10229598 bus1=BMT6406591B.1.2.3,bus2=BMT157073441.1.2.3,Phases=3,Linecode=CAB103_3_3,Length=0.042520000,Units=km
new line.TR10235625 bus1=BMT6416741B.2,bus2=BMT98433806.2,Phases=1,Linecode=CAB202_3_1,Length=0.253650000,Units=km
new line.TR10240035 bus1=BMT98430068.2,bus2=BMT98430075.2,Phases=1,Linecode=CAB202_3_1,Length=0.140040000,Units=km
new line.TR10240042 bus1=BMT98430068.2,bus2=BMT6423713B.2,Phases=1,Linecode=CAB202_3_1,Length=0.001000000,Units=km
new line.TR10240049 bus1=BMT6423713B.2,bus2=BMT98430082.2,Phases=1,Linecode=CAB202_3_1,Length=0.175010000,Units=km
new line.TR10249387 bus1=BMT6440149B.1,bus2=BMT6440156B.1,Phases=1,Linecode=CAB202_3_1,Length=0.115560000,Units=km
new line.TR10249394 bus1=BMT6440156B.1,bus2=BMT98429466.1,Phases=1,Linecode=CAB202_3_1,Length=0.135660000,Units=km
new line.TR10249401 bus1=BMT98429466.1,bus2=BMT6440170B.1,Phases=1,Linecode=CAB202_3_1,Length=0.457980000,Units=km
new line.TR10249408 bus1=BMT98429466.1,bus2=BMT98429480.1,Phases=1,Linecode=CAB103_3_1,Length=0.021960000,Units=km
new line.TR10249415 bus1=BMT6440170B.1,bus2=BMT6440177B.1,Phases=1,Linecode=CAB202_3_1,Length=0.044650000,Units=km
new line.TR10249422 bus1=BMT6440177B.1,bus2=BMT6440184B.1,Phases=1,Linecode=CAB202_3_1,Length=0.037650000,Units=km
new line.TR10249429 bus1=BMT6440184B.1,bus2=BMT6440191B.1,Phases=1,Linecode=CAB202_3_1,Length=0.551270000,Units=km
new line.TR10249436 bus1=BMT6440191B.1,bus2=BMT6440198B.1,Phases=1,Linecode=CAB202_3_1,Length=0.495220000,Units=km
new line.TR10249443 bus1=BMT6440198B.1,bus2=BMT6440205B.1,Phases=1,Linecode=CAB202_3_1,Length=0.132920000,Units=km
new line.TR10249450 bus1=BMT6440205B.1,bus2=BMT98429473.1,Phases=1,Linecode=CAB202_3_1,Length=0.246230000,Units=km
new line.TR10249457 bus1=BMT6440219B.2,bus2=BMT166431546.2,Phases=1,Linecode=CAB202_3_1,Length=0.225900000,Units=km
new line.TR10250010 bus1=BMT98436074.3,bus2=BMT6441675B.3,Phases=1,Linecode=CAB202_3_1,Length=0.405200000,Units=km
new line.TR10250017 bus1=BMT6441675B.3,bus2=BMT6441682B.3,Phases=1,Linecode=CAB202_3_1,Length=0.032020000,Units=km
new line.TR10250024 bus1=BMT6441682B.3,bus2=BMT6441689B.3,Phases=1,Linecode=CAB202_3_1,Length=0.041400000,Units=km
new line.TR10250031 bus1=BMT6441689B.3,bus2=BMT6441703B.3,Phases=1,Linecode=CAB202_3_1,Length=0.270340000,Units=km
new line.TR10250038 bus1=BMT6441703B.3,bus2=BMT98436081.3,Phases=1,Linecode=CAB202_3_1,Length=0.055230000,Units=km
new line.TR10250045 bus1=BMT98436081.3,bus2=BMT98436088.3,Phases=1,Linecode=CAB202_3_1,Length=0.181030000,Units=km