new line.1036386 bus1=BBT439504.1.2.3.0,bus2=BBT149863296.1.2.3.0,Phases=3,Linecode=BT810_BT810_4_3_4,Length=0.032250000,Units=km
new line.1036428 bus1=BBT149863180.1.2.3.0,bus2=BBT439518.1.2.3.0,Phases=3,Linecode=BT810_BT810_4_3_4,Length=0.034000000,Units=km
new line.1036435 bus1=BBT149863180.1.2.3.0,bus2=BBT149863255.1.2.3.0,Phases=3,Linecode=BT810_BT810_4_3_4,Length=0.020250000,Units=km
new line.1036442 bus1=BBT439553.1.2.3.0,bus2=BBT149863180.1.2.3.0,Phases=3,Linecode=BT810_BT810_4_3_4,Length=0.025550000,Units=km
new line.1036477 bus1=BBT149863255.1.2.3.0,bus2=BBT439539.1.2.3.0,Phases=3,Linecode=BT810_BT810_4_3_4,Length=0.030020000,Units=km
new line.1036512 bus1=BBT439539.1.2.3.0,bus2=BBT151166781.1.2.3.0,Phases=3,Linecode=BT810_BT810_4_3_4,Length=0.026420000,Units=km
new line.1036540 bus1=BBT439546.1.2.3.0,bus2=BBT440855.1.2.3.0,Phases=3,Linecode=BT810_BT810_4_3_4,Length=0.037740000,Units=km
new line.1036547 bus1=BBT439560.1.2.3.0,bus2=BBT439553.1.2.3.0,Phases=3,Linecode=BT810_BT810_4_3_4,Length=0.023850000,Units=km
new line.1036582 bus1=BBT592398.1.2.3.0,bus2=BBT439560.1.2.3.0,Phases=3,Linecode=BT810_BT810_4_3_4,Length=0.030000000,Units=km
new line.1036603 bus1=BBT439945.1.2.3.0,bus2=BBT592398.1.2.3.0,Phases=3,Linecode=BT803_BT803_4_3_4,Length=0.027460000,Units=km
new line.1037464 bus1=BBT439882.1.2.3.0,bus2=BBT439973.1.2.3.0,Phases=3,Linecode=BT803_BT803_4_3_4,Length=0.026080000,Units=km
new line.1037485 bus1=BBT439889.1.2.3.0,bus2=BBT3846600.1.2.3.0,Phases=3,Linecode=BT803_BT803_4_3_4,Length=0.032760000,Units=km
new line.1037499 bus1=BBT439896.1.2.3.0,bus2=BBT439882.1.2.3.0,Phases=3,Linecode=BT803_BT803_4_3_4,Length=0.029160000,Units=km
new line.1037506 bus1=BBT439889.1.2.3.0,bus2=BBT439896.1.2.3.0,Phases=3,Linecode=BT803_BT803_4_3_4,Length=0.034990000,Units=km
new line.1037513 bus1=BBT439896.1.2.3.0,bus2=BBT592321.1.2.3.0,Phases=3,Linecode=BT803_BT803_4_3_4,Length=0.034670000,Units=km
new line.1037541 bus1=BBT439896.1.2.3.0,bus2=BBT149863620.1.2.3.0,Phases=3,Linecode=BT803_BT803_4_3_4,Length=0.024190000,Units=km
new line.1037555 bus1=BBT149863620.1.2.3.0,bus2=BBT439910.1.2.3.0,Phases=3,Linecode=BT803_BT803_4_3_4,Length=0.033620000,Units=km
new line.1037597 bus1=BBT439910.1.2.3.0,bus2=BBT439917.1.2.3.0,Phases=3,Linecode=BT803_BT803_4_3_4,Length=0.048300000,Units=km
new line.1037618 bus1=BBT592398.1.2.3.0,bus2=BBT149862927.1.2.3.0,Phases=3,Linecode=BT803_BT803_4_3_4,Length=0.027300000,Units=km
new line.1037667 bus1=BBT439938.1.2.3.0,bus2=BBT439924.1.2.3.0,Phases=3,Linecode=BT803_BT803_4_3_4,Length=0.029830000,Units=km
new line.1037688 bus1=BBT439945.1.2.3.0,bus2=BBT592419.1.2.3.0,Phases=3,Linecode=BT803_BT803_4_3_4,Length=0.028600000,Units=km
new line.1037709 bus1=BBT592419.1.2.3.0,bus2=BBT439938.1.2.3.0,Phases=3,Linecode=BT803_BT803_4_3_4,Length=0.029830000,Units=km
new line.1037744 bus1=BBT439959.1.2.3.0,bus2=BBT439504.1.2.3.0,Phases=3,Linecode=BT803_BT803_4_3_4,Length=0.031390000,Units=km
new line.1037779 bus1=BBT439966.1.2.3.0,bus2=BBT439959.1.2.3.0,Phases=3,Linecode=BT803_BT803_4_3_4,Length=0.039450000,Units=km
new line.1037786 bus1=BBT439980.1.2.3.0,bus2=BBT439966.1.2.3.0,Phases=3,Linecode=BT803_BT803_4_3_4,Length=0.034130000,Units=km
new line.1037793 bus1=BBT439966.1.2.3.0,bus2=BBT440001.1.2.3.0,Phases=3,Linecode=BT803_BT803_4_3_4,Length=0.034890000,Units=km
new line.1037807 bus1=BBT3846600.1.2.3.0,bus2=BBT4742628.1.2.3.0,Phases=3,Linecode=BT803_BT803_4_3_4,Length=0.027460000,Units=km
new line.1037835 bus1=BBT439966.1.2.3.0,bus2=BBT151162078.1.2.3.0,Phases=3,Linecode=BT803_BT803_4_3_4,Length=0.026420000,Units=km
new line.1037863 bus1=BBT439980.1.2.3.0,bus2=BBT439987.1.2.3.0,Phases=3,Linecode=BT803_BT803_4_3_4,Length=0.036360000,Units=km
new line.1037884 bus1=BBT439987.1.2.3.0,bus2=BBT439994.1.2.3.0,Phases=3,Linecode=BT803_BT803_4_3_4,Length=0.033290000,Units=km
new line.1037891 bus1=BBT439987.1.2.3.0,bus2=BBT7282249.1.2.3.0,Phases=3,Linecode=BT803_BT803_4_3_4,Length=0.035000000,Units=km
new line.1037912 bus1=BBT439994.1.2.3.0,bus2=BBT5242708.1.2.3.0,Phases=3,Linecode=BT803_BT803_4_3_4,Length=0.037740000,Units=km
new line.1039746 bus1=BBT6534467.1.2.0,bus2=BBT440582.1.2.0,Phases=2,Linecode=BT801_BT801_4_2_3,Length=0.043010000,Units=km
new line.1039753 bus1=BBT6534467.1.2.0,bus2=BBT440603.1.2.0,Phases=2,Linecode=BT801_BT801_4_2_3,Length=0.037010000,Units=km
new line.1039781 bus1=BBT6534467.1.2.3.0,bus2=BBT114456792.1.2.3.0,Phases=3,Linecode=BT810_BT810_4_3_4,Length=0.028850000,Units=km
new line.1039795 bus1=BBT114456792.1.2.3.0,bus2=BBT440610.1.2.3.0,Phases=3,Linecode=BT810_BT810_4_3_4,Length=0.029680000,Units=km
new line.1039823 bus1=BBT440603.1.2.0,bus2=BBT16472164.1.2.0,Phases=2,Linecode=BT106_BT106_7_2_1,Length=0.035810000,Units=km
new line.1039844 bus1=BBT440610.1.2.3.0,bus2=BBT440617.1.2.3.0,Phases=3,Linecode=BT810_BT810_4_3_4,Length=0.029680000,Units=km
new line.1039851 bus1=BBT440610.1.2.0,bus2=BBT440624.1.2.0,Phases=2,Linecode=BT808_BT808_4_2_3,Length=0.038600000,Units=km
new line.1039858 bus1=BBT440610.1.2.0,bus2=BBT7429270.1.2.0,Phases=2,Linecode=BT808_BT808_4_2_3,Length=0.034210000,Units=km
new line.1039900 bus1=BBT3341011.1.2.0,bus2=BBT3341004.1.2.0,Phases=2,Linecode=BT106_BT106_7_2_1,Length=0.042800000,Units=km
new line.1039935 bus1=BBT440624.1.2.0,bus2=BBT16472332.1.2.0,Phases=2,Linecode=BT808_BT808_4_2_3,Length=0.031400000,Units=km
new line.1039956 bus1=BBT16472675.1.2.0,bus2=BBT16483126.1.2.0,Phases=2,Linecode=BT810_BT810_4_2_4,Length=0.031390000,Units=km
new line.1039963 bus1=BBT16472675.1.2.0,bus2=BBT16481313.1.2.0,Phases=2,Linecode=BT808_BT808_4_2_3,Length=0.039120000,Units=km
new line.1039970 bus1=BBT16472675.1.2.0,bus2=BBT441296.1.2.0,Phases=2,Linecode=BT807_BT807_4_2_3,Length=0.034410000,Units=km
new line.1039991 bus1=BBT112450774.1.2.0,bus2=BBT3341011.1.2.0,Phases=2,Linecode=BT107_BT107_7_2_1,Length=0.032760000,Units=km
new line.1039998 bus1=BBT6534418.1.2.0,bus2=BBT3250914.1.2.0,Phases=2,Linecode=BT107_BT107_7_2_1,Length=0.061290000,Units=km
new line.1040026 bus1=BBT440645.1.2.0,bus2=BBT440638.1.2.0,Phases=2,Linecode=BT106_BT106_7_2_1,Length=0.037200000,Units=km
new line.1040033 bus1=BBT440645.1.2.0,bus2=BBT440666.1.2.0,Phases=2,Linecode=BT106_BT106_7_2_1,Length=0.042800000,Units=km
new line.1040061 bus1=BBT440652.1.2.0,bus2=BBT6534418.1.2.0,Phases=2,Linecode=BT807_BT807_4_2_3,Length=0.042200000,Units=km
new line.1040068 bus1=BBT440575.1.2.0,bus2=BBT440652.1.2.0,Phases=2,Linecode=BT513_BT513_7_2_1,Length=0.000510000,Units=km
new line.1040075 bus1=BBT440652.1.2.0,bus2=BBT440673.1.2.0,Phases=2,Linecode=BT807_BT807_4_2_3,Length=0.038290000,Units=km
new line.1040096 bus1=BBT440680.1.2.3.0,bus2=BBT75509037.1.2.3.0,Phases=3,Linecode=BT810_BT810_4_3_4,Length=0.040000000,Units=km
new line.1040103 bus1=BBT75509037.1.2.3.0,bus2=BBT15447791.1.2.3.0,Phases=3,Linecode=BT810_BT810_4_3_4,Length=0.037800000,Units=km
new line.1040110 bus1=BBT16486332.1.2.3.0,bus2=BBT75511494.1.2.3.0,Phases=3,Linecode=BT810_BT810_4_3_4,Length=0.038280000,Units=km
new line.1040138 bus1=BBT3001504.1.2.0,bus2=BBT68284806.1.2.0,Phases=2,Linecode=BT810_BT810_4_2_4,Length=0.036800000,Units=km
new line.1040166 bus1=BBT440673.1.2.0,bus2=BBT440645.1.2.0,Phases=2,Linecode=BT107_BT107_7_2_1,Length=0.056940000,Units=km
new line.1040173 bus1=BBT440673.1.2.0,bus2=BBT441359.1.2.0,Phases=2,Linecode=BT107_BT107_7_2_1,Length=0.062970000,Units=km
new line.1040180 bus1=BBT440673.1.2.0,bus2=BBT440694.1.2.0,Phases=2,Linecode=BT808_BT808_4_2_3,Length=0.049410000,Units=km
new line.1042238 bus1=BBT16472577.1.3.0,bus2=BBT441289.1.3.0,Phases=2,Linecode=BT808_BT808_4_2_3,Length=0.038080000,Units=km
new line.1042245 bus1=BBT16472577.1.3.0,bus2=BBT441317.1.3.0,Phases=2,Linecode=BT808_BT808_4_2_3,Length=0.039120000,Units=km
new line.1042259 bus1=BBT441317.1.3.0,bus2=BBT441338.1.3.0,Phases=2,Linecode=BT808_BT808_4_2_3,Length=0.039660000,Units=km
new line.1042273 bus1=BBT441324.1.3.0,bus2=BBT16472577.1.3.0,Phases=2,Linecode=BT808_BT808_4_2_3,Length=0.036720000,Units=km
new line.1042343 bus1=BBT441352.1.3.0,bus2=BBT441324.1.3.0,Phases=2,Linecode=BT808_BT808_4_2_3,Length=0.035510000,Units=km
new line.1042350 bus1=BBT441352.1.2.3.0,bus2=BBT16486332.1.2.3.0,Phases=3,Linecode=BT810_BT810_4_3_4,Length=0.046140000,Units=km
new line.1042357 bus1=BBT441352.1.2.3.0,bus2=BBT75508568.1.2.3.0,Phases=3,Linecode=BT810_BT810_4_3_4,Length=0.038280000,Units=km
new line.1042378 bus1=BBT441366.1.2.3.0,bus2=BBT441352.1.2.3.0,Phases=3,Linecode=BT803_BT803_4_3_4,Length=0.037220000,Units=km
new line.1042385 bus1=BBT441268.1.2.3.0,bus2=BBT441366.1.2.3.0,Phases=3,Linecode=BT513_BT513_7_3_1,Length=0.000510000,Units=km
new line.1042392 bus1=BBT441366.1.2.3.0,bus2=BBT75508897.1.2.3.0,Phases=3,Linecode=BT803_BT803_4_3_4,Length=0.045490000,Units=km
new line.1042441 bus1=BBT441387.1.2.3.0,bus2=BBT441394.1.2.3.0,Phases=3,Linecode=BT810_BT810_4_3_4,Length=0.029410000,Units=km
new line.1042504 bus1=BBT75508897.1.2.3.0,bus2=BBT75506293.1.2.3.0,Phases=3,Linecode=BT810_BT810_4_3_4,Length=0.033620000,Units=km
new line.1042511 bus1=BBT75508897.1.2.3.0,bus2=BBT75505635.1.2.3.0,Phases=3,Linecode=BT810_BT810_4_3_4,Length=0.029210000,Units=km
new line.1042560 bus1=BBT441422.1.2.3.0,bus2=BBT75506090.1.2.3.0,Phases=3,Linecode=BT810_BT810_4_3_4,Length=0.024190000,Units=km
new line.1042567 bus1=BBT441422.1.2.3.0,bus2=BBT75506139.1.2.3.0,Phases=3,Linecode=BT810_BT810_4_3_4,Length=0.036360000,Units=km
new line.1043813 bus1=BBT441870.1.2.3.0,bus2=BBT441863.1.2.3.0,Phases=3,Linecode=BT810_BT810_4_3_4,Length=0.041400000,Units=km
new line.1043827 bus1=BBT441877.1.2.3.0,bus2=BBT441870.1.2.3.0,Phases=3,Linecode=BT810_BT810_4_3_4,Length=0.030610000,Units=km
new line.1043862 bus1=BBT441884.1.2.3.0,bus2=BBT441877.1.2.3.0,Phases=3,Linecode=BT803_BT803_4_3_4,Length=0.025610000,Units=km
new line.1043890 bus1=BBT441891.1.2.3.0,bus2=BBT441884.1.2.3.0,Phases=3,Linecode=BT803_BT803_4_3_4,Length=0.031150000,Units=km
new line.1043918 bus1=BBT441898.1.2.3.0,bus2=BBT441891.1.2.3.0,Phases=3,Linecode=BT803_BT803_4_3_4,Length=0.034060000,Units=km
new line.1043925 bus1=BBT441856.1.2.3.0,bus2=BBT441898.1.2.3.0,Phases=3,Linecode=BT513_BT513_7_3_1,Length=0.000510000,Units=km
new line.1043932 bus1=BBT441898.1.2.3.0,bus2=BBT441905.1.2.3.0,Phases=3,Linecode=BT803_BT803_4_3_4,Length=0.032020000,Units=km
new line.1043946 bus1=BBT441905.1.2.3.0,bus2=BBT441912.1.2.3.0,Phases=3,Linecode=BT803_BT803_4_3_4,Length=0.023600000,Units=km
new line.1043953 bus1=BBT441905.1.2.3.0,bus2=BBT441919.1.2.3.0,Phases=3,Linecode=BT810_BT810_4_3_4,Length=0.037120000,Units=km
new line.1043981 bus1=BBT441912.1.2.3.0,bus2=BBT441926.1.2.3.0,Phases=3,Linecode=BT809_BT809_4_3_4,Length=0.034830000,Units=km
new line.1043988 bus1=BBT441912.1.2.3.0,bus2=BBT7211311.1.2.3.0,Phases=3,Linecode=BT810_BT810_4_3_4,Length=0.035780000,Units=km
new line.1044009 bus1=BBT441919.1.2.3.0,bus2=BBT441940.1.2.3.0,Phases=3,Linecode=BT810_BT810_4_3_4,Length=0.033620000,Units=km
new line.1044023 bus1=BBT441926.1.2.3.0,bus2=BBT441933.1.2.3.0,Phases=3,Linecode=BT809_BT809_4_3_4,Length=0.036240000,Units=km
new line.1044051 bus1=BBT593770.1.2.3.0,bus2=BBT593777.1.2.3.0,Phases=3,Linecode=BT810_BT810_4_3_4,Length=0.038950000,Units=km
new line.1044058 bus1=BBT152924794.1.2.3.0,bus2=BBT593784.1.2.3.0,Phases=3,Linecode=BT803_BT803_4_3_4,Length=0.034210000,Units=km
new line.1044093 bus1=BBT442017.1.2.3.0,bus2=BBT442031.1.2.3.0,Phases=3,Linecode=BT803_BT803_4_3_4,Length=0.016280000,Units=km
new line.1044128 bus1=BBT441968.1.2.3.0,bus2=BBT441961.1.2.3.0,Phases=3,Linecode=BT803_BT803_4_3_4,Length=0.026400000,Units=km
new line.1044149 bus1=BBT441975.1.2.3.0,bus2=BBT441968.1.2.3.0,Phases=3,Linecode=BT803_BT803_4_3_4,Length=0.028320000,Units=km
new line.1044156 bus1=BBT441975.1.2.3.0,bus2=BBT3361171.1.2.3.0,Phases=3,Linecode=BT803_BT803_4_3_4,Length=0.019210000,Units=km
new line.1044163 bus1=BBT441975.1.2.3.0,bus2=BBT5476508.1.2.3.0,Phases=3,Linecode=BT803_BT803_4_3_4,Length=0.024840000,Units=km
new line.1044184 bus1=BBT441982.1.2.3.0,bus2=BBT441975.1.2.3.0,Phases=3,Linecode=BT803_BT803_4_3_4,Length=0.035470000,Units=km
new line.1044191 bus1=BBT441947.1.2.3.0,bus2=BBT441982.1.2.3.0,Phases=3,Linecode=BT518_BT518_7_3_1,Length=0.000510000,Units=km
new line.1044198 bus1=BBT441982.1.2.3.0,bus2=BBT441996.1.2.3.0,Phases=3,Linecode=BT810_BT810_4_3_4,Length=0.029830000,Units=km
new line.1044219 bus1=BBT441989.1.2.3.0,bus2=BBT442003.1.2.3.0,Phases=3,Linecode=BT803_BT803_4_3_4,Length=0.037440000,Units=km
new line.1044233 bus1=BBT441996.1.2.3.0,bus2=BBT442010.1.2.3.0,Phases=3,Linecode=BT803_BT803_4_3_4,Length=0.039830000,Units=km
new line.1044268 bus1=BBT442003.1.2.3.0,bus2=BBT442024.1.2.3.0,Phases=3,Linecode=BT803_BT803_4_3_4,Length=0.039120000,Units=km
new line.1044303 bus1=BBT442010.1.2.3.0,bus2=BBT442017.1.2.3.0,Phases=3,Linecode=BT809_BT809_4_3_4,Length=0.035380000,Units=km
new line.1044352 bus1=BBT444152.1.2.3.0,bus2=BBT444145.1.2.3.0,Phases=3,Linecode=BT810_BT810_4_3_4,Length=0.033300000,Units=km
new line.1044394 bus1=BBT443515.1.2.3.0,bus2=BBT443529.1.2.3.0,Phases=3,Linecode=BT803_BT803_4_3_4,Length=0.032560000,Units=km
new line.1045248 bus1=BBT442353.1.2.0,bus2=BBT442346.1.2.0,Phases=2,Linecode=BT107_BT107_7_2_1,Length=0.038590000,Units=km
new line.1045255 bus1=BBT442360.1.2.0,bus2=BBT442353.1.2.0,Phases=2,Linecode=BT107_BT107_7_2_1,Length=0.041340000,Units=km
new line.1045262 bus1=BBT148757513.1.2.0,bus2=BBT442381.1.2.0,Phases=2,Linecode=BT107_BT107_7_2_1,Length=0.030530000,Units=km
new line.1045276 bus1=BBT442374.1.2.0,bus2=BBT442360.1.2.0,Phases=2,Linecode=BT108_BT107_7_2_1,Length=0.042720000,Units=km
new line.1045283 bus1=BBT442339.1.2.0,bus2=BBT442374.1.2.0,Phases=2,Linecode=BT513_BT513_7_2_1,Length=0.000510000,Units=km
new line.1045290 bus1=BBT442374.1.2.0,bus2=BBT442395.1.2.0,Phases=2,Linecode=BT108_BT107_7_2_1,Length=0.037740000,Units=km
new line.1045297 bus1=BBT442374.1.2.0,bus2=BBT16632058.1.2.0,Phases=2,Linecode=BT503_BT503_5_2_1,Length=0.013040000,Units=km
new line.1045304 bus1=BBT442374.1.2.0,bus2=BBT16631876.1.2.0,Phases=2,Linecode=BT503_BT503_5_2_1,Length=0.004470000,Units=km
new line.1045346 bus1=BBT442388.1.2.0,bus2=BBT442367.1.2.0,Phases=2,Linecode=BT107_BT107_7_2_1,Length=0.042190000,Units=km
new line.1045367 bus1=BBT442395.1.2.0,bus2=BBT442388.1.2.0,Phases=2,Linecode=BT107_BT107_7_2_1,Length=0.041880000,Units=km
new line.1045374 bus1=BBT442395.1.2.0,bus2=BBT442409.1.2.0,Phases=2,Linecode=BT107_BT107_7_2_1,Length=0.036890000,Units=km
new line.1045381 bus1=BBT442395.1.2.0,bus2=BBT442416.1.2.0,Phases=2,Linecode=BT810_BT810_4_2_4,Length=0.031620000,Units=km
new line.1045402 bus1=BBT442409.1.2.0,bus2=BBT442430.1.2.0,Phases=2,Linecode=BT107_BT107_7_2_1,Length=0.035230000,Units=km
new line.1045409 bus1=BBT442416.1.2.0,bus2=BBT442437.1.2.0,Phases=2,Linecode=BT810_BT810_4_2_4,Length=0.030530000,Units=km
new line.1045423 bus1=BBT442423.1.2.0,bus2=BBT442402.1.2.0,Phases=2,Linecode=BT810_BT810_4_2_4,Length=0.047170000,Units=km
new line.1045479 bus1=BBT442437.1.2.0,bus2=BBT442423.1.2.0,Phases=2,Linecode=BT810_BT810_4_2_4,Length=0.031390000,Units=km
new line.1070714 bus1=BBT450879.1.2.3.0,bus2=BBT450886.1.2.3.0,Phases=3,Linecode=BT108_BT107_7_3_1,Length=0.027790000,Units=km
new line.1070728 bus1=BBT452965.1.2.3.0,bus2=BBT452979.1.2.3.0,Phases=3,Linecode=BT108_BT108_7_3_1,Length=0.027300000,Units=km
new line.1070763 bus1=BBT450900.1.2.3.0,bus2=BBT450991.1.2.3.0,Phases=3,Linecode=BT803_BT803_4_3_4,Length=0.019110000,Units=km
new line.1070784 bus1=BBT450914.1.2.3.0,bus2=BBT450907.1.2.3.0,Phases=3,Linecode=BT107_BT107_7_3_1,Length=0.034410000,Units=km
new line.1070812 bus1=BBT450928.1.2.3.0,bus2=BBT450914.1.2.3.0,Phases=3,Linecode=BT107_BT107_7_3_1,Length=0.028020000,Units=km
new line.1070833 bus1=BBT450935.1.2.3.0,bus2=BBT450928.1.2.3.0,Phases=3,Linecode=BT107_BT107_7_3_1,Length=0.028850000,Units=km
new line.1070840 bus1=BBT450935.1.2.0,bus2=BBT450949.1.2.0,Phases=2,Linecode=BT107_BT106_7_2_1,Length=0.026250000,Units=km
new line.1070854 bus1=BBT450942.1.2.3.0,bus2=BBT450921.1.2.3.0,Phases=3,Linecode=BT803_BT803_4_3_4,Length=0.047630000,Units=km
new line.1070861 bus1=BBT450949.1.2.0,bus2=BBT450963.1.2.0,Phases=2,Linecode=BT107_BT106_7_2_1,Length=0.025500000,Units=km
new line.1070896 bus1=BBT450956.1.2.3.0,bus2=BBT450935.1.2.3.0,Phases=3,Linecode=BT803_BT803_4_3_4,Length=0.036400000,Units=km
new line.1070903 bus1=BBT450956.1.2.3.0,bus2=BBT450942.1.2.3.0,Phases=3,Linecode=BT803_BT803_4_3_4,Length=0.039700000,Units=km
new line.1070924 bus1=BBT450970.1.2.3.0,bus2=BBT450956.1.2.3.0,Phases=3,Linecode=BT803_BT803_4_3_4,Length=0.027660000,Units=km
new line.1070931 bus1=BBT450893.1.2.3.0,bus2=BBT450977.1.2.3.0,Phases=3,Linecode=BT513_BT513_7_3_1,Length=0.000510000,Units=km
new line.1070938 bus1=BBT450977.1.2.3.0,bus2=BBT450970.1.2.3.0,Phases=3,Linecode=BT803_BT803_4_3_4,Length=0.026910000,Units=km
new line.1070973 bus1=BBT450977.1.2.0,bus2=BBT3362851.1.2.0,Phases=2,Linecode=BT519_BT519_5_2_1,Length=0.026570000,Units=km
new line.1070994 bus1=BBT450991.1.2.3.0,bus2=BBT450984.1.2.3.0,Phases=3,Linecode=BT803_BT803_4_3_4,Length=0.022670000,Units=km
new line.1071043 bus1=BBT451012.1.2.3.0,bus2=BBT451005.1.2.3.0,Phases=3,Linecode=BT107_BT106_7_3_1,Length=0.028650000,Units=km
new line.1071057 bus1=BBT451026.1.2.3.0,bus2=BBT451019.1.2.3.0,Phases=3,Linecode=BT107_BT106_7_3_1,Length=0.027460000,Units=km
new line.1071078 bus1=BBT451033.1.2.3.0,bus2=BBT451012.1.2.3.0,Phases=3,Linecode=BT108_BT107_7_3_1,Length=0.031770000,Units=km
new line.1071099 bus1=BBT451040.1.2.3.0,bus2=BBT451026.1.2.3.0,Phases=3,Linecode=BT107_BT106_7_3_1,Length=0.029160000,Units=km
new line.1071106 bus1=BBT451040.1.2.3.0,bus2=BBT451033.1.2.3.0,Phases=3,Linecode=BT108_BT107_7_3_1,Length=0.009430000,Units=km
new line.1071113 bus1=BBT451040.1.2.3.0,bus2=BBT451047.1.2.3.0,Phases=3,Linecode=BT107_BT106_7_3_1,Length=0.005000000,Units=km
new line.1071134 bus1=BBT451047.1.2.3.0,bus2=BBT451061.1.2.3.0,Phases=3,Linecode=BT107_BT106_7_3_1,Length=0.034480000,Units=km
new line.1071155 bus1=BBT451054.1.2.3.0,bus2=BBT451040.1.2.3.0,Phases=3,Linecode=BT108_BT107_7_3_1,Length=0.023320000,Units=km
new line.1071162 bus1=BBT450998.1.2.3.0,bus2=BBT451054.1.2.3.0,Phases=3,Linecode=BT518_BT518_7_3_1,Length=0.000510000,Units=km
new line.1071169 bus1=BBT451054.1.2.3.0,bus2=BBT451068.1.2.3.0,Phases=3,Linecode=BT108_BT107_7_3_1,Length=0.030020000,Units=km
new line.1071183 bus1=BBT451068.1.2.3.0,bus2=BBT451075.1.2.3.0,Phases=3,Linecode=BT108_BT107_7_3_1,Length=0.029530000,Units=km
new line.1071225 bus1=BBT451075.1.2.3.0,bus2=BBT451089.1.2.3.0,Phases=3,Linecode=BT108_BT107_7_3_1,Length=0.028650000,Units=km
new line.1071260 bus1=BBT451089.1.2.3.0,bus2=BBT451103.1.2.3.0,Phases=3,Linecode=BT108_BT107_7_3_1,Length=0.027310000,Units=km
new line.1071267 bus1=BBT451096.1.2.3.0,bus2=BBT451082.1.2.3.0,Phases=3,Linecode=BT107_BT106_7_3_1,Length=0.034670000,Units=km
new line.1071288 bus1=BBT451103.1.2.3.0,bus2=BBT451096.1.2.3.0,Phases=3,Linecode=BT107_BT106_7_3_1,Length=0.028020000,Units=km
new line.1071295 bus1=BBT451103.1.2.3.0,bus2=BBT451110.1.2.3.0,Phases=3,Linecode=BT108_BT107_7_3_1,Length=0.006400000,Units=km
new line.1071302 bus1=BBT451103.1.2.3.0,bus2=BBT451117.1.2.3.0,Phases=3,Linecode=BT107_BT106_7_3_1,Length=0.007210000,Units=km
new line.1071337 bus1=BBT451117.1.2.3.0,bus2=BBT451124.1.2.3.0,Phases=3,Linecode=BT107_BT106_7_3_1,Length=0.030230000,Units=km
new line.1071358 bus1=BBT451124.1.2.3.0,bus2=BBT451131.1.2.3.0,Phases=3,Linecode=BT107_BT106_7_3_1,Length=0.031620000,Units=km
new line.1071379 bus1=BBT451131.1.2.3.0,bus2=BBT451138.1.2.3.0,Phases=3,Linecode=BT107_BT106_7_3_1,Length=0.035230000,Units=km
new line.1071442 bus1=BBT451166.1.2.3.0,bus2=BBT451159.1.2.3.0,Phases=3,Linecode=BT803_BT803_4_3_4,Length=0.029070000,Units=km
new line.1071463 bus1=BBT451180.1.2.3.0,bus2=BBT451166.1.2.3.0,Phases=3,Linecode=BT803_BT803_4_3_4,Length=0.033620000,Units=km
new line.1071484 bus1=BBT451194.1.2.3.0,bus2=BBT451173.1.2.3.0,Phases=3,Linecode=BT803_BT803_4_3_4,Length=0.024600000,Units=km
new line.1071498 bus1=BBT451201.1.2.3.0,bus2=BBT451187.1.2.3.0,Phases=3,Linecode=BT803_BT803_4_3_4,Length=0.008060000,Units=km
new line.1071505 bus1=BBT451201.1.2.3.0,bus2=BBT451180.1.2.3.0,Phases=3,Linecode=BT803_BT803_4_3_4,Length=0.020130000,Units=km
new line.1071512 bus1=BBT451201.1.2.3.0,bus2=BBT109529695.1.2.3.0,Phases=3,Linecode=BT803_BT803_4_3_4,Length=0.003610000,Units=km
new line.1071547 bus1=BBT109529695.1.2.3.0,bus2=BBT158814462.1.2.3.0,Phases=3,Linecode=BT803_BT803_4_3_4,Length=0.031770000,Units=km
new line.1071575 bus1=BBT451215.1.2.3.0,bus2=BBT451194.1.2.3.0,Phases=3,Linecode=BT803_BT803_4_3_4,Length=0.029530000,Units=km
new line.1071596 bus1=BBT451250.1.2.3.0,bus2=BBT451222.1.2.3.0,Phases=3,Linecode=BT107_BT107_7_3_1,Length=0.029530000,Units=km
new line.1071624 bus1=BBT451229.1.2.3.0,bus2=BBT451201.1.2.3.0,Phases=3,Linecode=BT803_BT803_4_3_4,Length=0.020250000,Units=km
new line.1071645 bus1=BBT451236.1.2.3.0,bus2=BBT451215.1.2.3.0,Phases=3,Linecode=BT803_BT803_4_3_4,Length=0.027730000,Units=km
new line.1071666 bus1=BBT451264.1.2.3.0,bus2=BBT451250.1.2.3.0,Phases=3,Linecode=BT107_BT107_7_3_1,Length=0.028300000,Units=km
new line.1071694 bus1=BBT451257.1.2.3.0,bus2=BBT451236.1.2.3.0,Phases=3,Linecode=BT803_BT803_4_3_4,Length=0.025940000,Units=km
new line.1071715 bus1=BBT451285.1.2.3.0,bus2=BBT451264.1.2.3.0,Phases=3,Linecode=BT107_BT107_7_3_1,Length=0.029070000,Units=km
new line.1071750 bus1=BBT451229.1.2.3.0,bus2=BBT451271.1.2.3.0,Phases=3,Linecode=BT803_BT803_4_3_4,Length=0.034130000,Units=km
new line.1071778 bus1=BBT158814193.1.2.3.0,bus2=BBT451257.1.2.3.0,Phases=3,Linecode=BT803_BT803_4_3_4,Length=0.037160000,Units=km
new line.1071785 bus1=BBT451271.1.2.3.0,bus2=BBT158814193.1.2.3.0,Phases=3,Linecode=BT803_BT803_4_3_4,Length=0.006080000,Units=km
new line.1071799 bus1=BBT451285.1.2.3.0,bus2=BBT451243.1.2.3.0,Phases=3,Linecode=BT803_BT803_4_3_4,Length=0.037590000,Units=km
new line.1071827 bus1=BBT451292.1.2.3.0,bus2=BBT451278.1.2.3.0,Phases=3,Linecode=BT805_BT805_4_3_4,Length=0.029070000,Units=km
new line.1071841 bus1=BBT451299.1.2.3.0,bus2=BBT451292.1.2.3.0,Phases=3,Linecode=BT805_BT805_4_3_4,Length=0.030870000,Units=km
new line.1071848 bus1=BBT451145.1.2.3.0,bus2=BBT451313.1.2.3.0,Phases=3,Linecode=BT513_BT513_7_3_1,Length=0.000510000,Units=km
new line.1071855 bus1=BBT451313.1.2.3.0,bus2=BBT451299.1.2.3.0,Phases=3,Linecode=BT805_BT805_4_3_4,Length=0.033620000,Units=km
new line.1071890 bus1=BBT451306.1.2.3.0,bus2=BBT451285.1.2.3.0,Phases=3,Linecode=BT803_BT803_4_3_4,Length=0.021930000,Units=km
new line.1040222 bus1=BBT75508988.1.2.3.0,bus2=BBT440680.1.2.3.0,Phases=3,Linecode=BT810_BT810_4_3_4,Length=0.039210000,Units=km
new line.1040229 bus1=BBT75508890.1.2.3.0,bus2=BBT75508988.1.2.3.0,Phases=3,Linecode=BT810_BT810_4_3_4,Length=0.039450000,Units=km
new line.1040236 bus1=BBT75508988.1.2.3.0,bus2=BBT441387.1.2.3.0,Phases=3,Linecode=BT810_BT810_4_3_4,Length=0.030000000,Units=km
new line.1040278 bus1=BBT440694.1.2.0,bus2=BBT440701.1.2.0,Phases=2,Linecode=BT808_BT808_4_2_3,Length=0.038830000,Units=km
new line.1040299 bus1=BBT440701.1.2.0,bus2=BBT440708.1.2.0,Phases=2,Linecode=BT808_BT808_4_2_3,Length=0.035810000,Units=km
new line.1040327 bus1=BBT2802291.1.2.3.0,bus2=BBT2802669.1.2.3.0,Phases=3,Linecode=BT803_BT803_4_3_4,Length=0.030000000,Units=km
new line.1040334 bus1=BBT2802291.1.2.3.0,bus2=BBT2802480.1.2.3.0,Phases=3,Linecode=BT810_BT810_4_3_4,Length=0.042540000,Units=km
new line.1040341 bus1=BBT2802291.1.2.3.0,bus2=BBT2802494.1.2.3.0,Phases=3,Linecode=BT810_BT810_4_3_4,Length=0.030480000,Units=km
new line.1040775 bus1=BBT440862.1.2.3.0,bus2=BBT440848.1.2.3.0,Phases=3,Linecode=BT809_BT809_4_3_4,Length=0.030410000,Units=km
new line.1040782 bus1=BBT440876.1.2.3.0,bus2=BBT440862.1.2.3.0,Phases=3,Linecode=BT809_BT809_4_3_4,Length=0.032560000,Units=km
new line.1040817 bus1=BBT440883.1.2.3.0,bus2=BBT439546.1.2.3.0,Phases=3,Linecode=BT810_BT810_4_3_4,Length=0.035850000,Units=km
new line.1040845 bus1=BBT440890.1.2.3.0,bus2=BBT440876.1.2.3.0,Phases=3,Linecode=BT809_BT809_4_3_4,Length=0.035470000,Units=km
new line.1040880 bus1=BBT440897.1.2.3.0,bus2=BBT440883.1.2.3.0,Phases=3,Linecode=BT810_BT810_4_3_4,Length=0.034990000,Units=km
new line.1040901 bus1=BBT440904.1.2.3.0,bus2=BBT440890.1.2.3.0,Phases=3,Linecode=BT809_BT809_4_3_4,Length=0.037640000,Units=km
new line.1040936 bus1=BBT440911.1.2.3.0,bus2=BBT440897.1.2.3.0,Phases=3,Linecode=BT810_BT810_4_3_4,Length=0.034130000,Units=km
new line.1040964 bus1=BBT440918.1.2.3.0,bus2=BBT440911.1.2.3.0,Phases=3,Linecode=BT810_BT810_4_3_4,Length=0.036360000,Units=km
new line.1041006 bus1=BBT440925.1.2.3.0,bus2=BBT440904.1.2.3.0,Phases=3,Linecode=BT108_BT107_7_3_1,Length=0.051230000,Units=km
new line.1041013 bus1=BBT440841.1.2.3.0,bus2=BBT440925.1.2.3.0,Phases=3,Linecode=BT518_BT518_7_3_1,Length=0.000510000,Units=km
new line.1041020 bus1=BBT440925.1.2.3.0,bus2=BBT440932.1.2.3.0,Phases=3,Linecode=BT108_BT107_7_3_1,Length=0.012810000,Units=km
new line.1041055 bus1=BBT440932.1.2.3.0,bus2=BBT440918.1.2.3.0,Phases=3,Linecode=BT810_BT810_4_3_4,Length=0.035850000,Units=km
new line.1041062 bus1=BBT440932.1.2.3.0,bus2=BBT441954.1.2.3.0,Phases=3,Linecode=BT108_BT107_7_3_1,Length=0.031890000,Units=km
new line.1041083 bus1=BBT441954.1.2.3.0,bus2=BBT3493926.1.2.3.0,Phases=3,Linecode=BT108_BT107_7_3_1,Length=0.030480000,Units=km
new line.1042189 bus1=BBT441275.1.2.0,bus2=BBT16472675.1.2.0,Phases=2,Linecode=BT807_BT807_4_2_3,Length=0.038600000,Units=km
new line.1075992 bus1=BBT452671.1.2.3.0,bus2=BBT452678.1.2.3.0,Phases=3,Linecode=BT809_BT809_4_3_4,Length=0.037540000,Units=km
new line.1076013 bus1=BBT452678.1.2.3.0,bus2=BBT452685.1.2.3.0,Phases=3,Linecode=BT809_BT809_4_3_4,Length=0.036880000,Units=km
new line.1076041 bus1=BBT452685.1.2.3.0,bus2=BBT452692.1.2.3.0,Phases=3,Linecode=BT809_BT809_4_3_4,Length=0.037540000,Units=km
new line.1076062 bus1=BBT452692.1.2.3.0,bus2=BBT452699.1.2.3.0,Phases=3,Linecode=BT809_BT809_4_3_4,Length=0.037540000,Units=km
new line.1076076 bus1=BBT452699.1.2.3.0,bus2=BBT452706.1.2.3.0,Phases=3,Linecode=BT809_BT809_4_3_4,Length=0.030480000,Units=km
new line.1076097 bus1=BBT452706.1.2.3.0,bus2=BBT452713.1.2.3.0,Phases=3,Linecode=BT809_BT809_4_3_4,Length=0.032560000,Units=km
new line.1076125 bus1=BBT452713.1.2.3.0,bus2=BBT452720.1.2.3.0,Phases=3,Linecode=BT809_BT809_4_3_4,Length=0.031830000,Units=km
new line.1076174 bus1=BBT452741.1.2.3.0,bus2=BBT452734.1.2.3.0,Phases=3,Linecode=BT803_BT803_4_3_4,Length=0.024410000,Units=km
new line.1076209 bus1=BBT452748.1.2.3.0,bus2=BBT452741.1.2.3.0,Phases=3,Linecode=BT803_BT803_4_3_4,Length=0.030530000,Units=km
new line.1076216 bus1=BBT452769.1.2.3.0,bus2=BBT452748.1.2.3.0,Phases=3,Linecode=BT803_BT803_4_3_4,Length=0.023350000,Units=km
new line.1076265 bus1=BBT452748.1.2.3.0,bus2=BBT136288175.1.2.3.0,Phases=3,Linecode=BT803_BT803_4_3_4,Length=0.023320000,Units=km
new line.1076279 bus1=BBT136288175.1.2.3.0,bus2=BBT452762.1.2.3.0,Phases=3,Linecode=BT803_BT803_4_3_4,Length=0.025240000,Units=km
new line.1076293 bus1=BBT452762.1.2.3.0,bus2=BBT452776.1.2.3.0,Phases=3,Linecode=BT803_BT803_4_3_4,Length=0.025810000,Units=km
new line.1076314 bus1=BBT452769.1.2.3.0,bus2=BBT452783.1.2.3.0,Phases=3,Linecode=BT803_BT803_4_3_4,Length=0.046530000,Units=km
new line.1076342 bus1=BBT452783.1.2.3.0,bus2=BBT452790.1.2.3.0,Phases=3,Linecode=BT803_BT803_4_3_4,Length=0.035900000,Units=km
new line.1076363 bus1=BBT452790.1.2.3.0,bus2=BBT452797.1.2.3.0,Phases=3,Linecode=BT803_BT803_4_3_4,Length=0.030270000,Units=km
new line.1076377 bus1=BBT452797.1.2.3.0,bus2=BBT452804.1.2.3.0,Phases=3,Linecode=BT803_BT803_4_3_4,Length=0.031260000,Units=km
new line.1076776 bus1=BBT452902.1.2.0,bus2=BBT452895.1.2.0,Phases=2,Linecode=BT107_BT107_7_2_1,Length=0.033240000,Units=km
new line.1076804 bus1=BBT452916.1.2.0,bus2=BBT452909.1.2.0,Phases=2,Linecode=BT107_BT107_7_2_1,Length=0.031000000,Units=km
new line.1076853 bus1=BBT452923.1.2.0,bus2=BBT452902.1.2.0,Phases=2,Linecode=BT107_BT107_7_2_1,Length=0.033530000,Units=km
new line.1076860 bus1=BBT452923.1.2.0,bus2=BBT452916.1.2.0,Phases=2,Linecode=BT107_BT107_7_2_1,Length=0.033020000,Units=km
new line.1076888 bus1=BBT452930.1.2.0,bus2=BBT452923.1.2.0,Phases=2,Linecode=BT107_BT107_7_2_1,Length=0.037660000,Units=km
new line.1076895 bus1=BBT452888.1.2.0,bus2=BBT452930.1.2.0,Phases=2,Linecode=BT518_BT518_7_2_1,Length=0.000510000,Units=km
new line.1076902 bus1=BBT452930.1.2.0,bus2=BBT452951.1.2.0,Phases=2,Linecode=BT107_BT107_7_2_1,Length=0.039460000,Units=km
new line.1076930 bus1=BBT452944.1.2.0,bus2=BBT452937.1.2.0,Phases=2,Linecode=BT107_BT107_7_2_1,Length=0.036350000,Units=km
new line.1076951 bus1=BBT452951.1.2.0,bus2=BBT452944.1.2.0,Phases=2,Linecode=BT107_BT107_7_2_1,Length=0.035510000,Units=km
new line.1077007 bus1=BBT452972.1.2.3.0,bus2=BBT452965.1.2.3.0,Phases=3,Linecode=BT108_BT108_7_3_1,Length=0.034480000,Units=km
new line.1077014 bus1=BBT452979.1.2.3.0,bus2=BBT453000.1.2.3.0,Phases=3,Linecode=BT108_BT108_7_3_1,Length=0.028650000,Units=km
new line.1077042 bus1=BBT452993.1.2.3.0,bus2=BBT452972.1.2.3.0,Phases=3,Linecode=BT803_BT803_4_3_4,Length=0.032760000,Units=km
new line.1077049 bus1=BBT452958.1.2.3.0,bus2=BBT452993.1.2.3.0,Phases=3,Linecode=BT513_BT513_7_3_1,Length=0.000510000,Units=km
new line.1077056 bus1=BBT452993.1.2.3.0,bus2=BBT453007.1.2.3.0,Phases=3,Linecode=BT803_BT803_4_3_4,Length=0.032760000,Units=km
new line.1077077 bus1=BBT453000.1.2.3.0,bus2=BBT453028.1.2.3.0,Phases=3,Linecode=BT108_BT108_7_3_1,Length=0.029970000,Units=km
new line.1077112 bus1=BBT453007.1.2.3.0,bus2=BBT452986.1.2.3.0,Phases=3,Linecode=BT809_BT809_4_3_4,Length=0.028650000,Units=km