new load.3000103962M1 bus1=RML1050736339.1.2.0,Phases=2,kv=0.22,kW=1.29548,pf=0.92,Vminpu=0.92,Vmaxpu=1.5,model=1,daily=RES2_2,status=variable
new load.3000103970M1 bus1=RML1050737634.1.2.3.0,Phases=3,kv=0.22,kW=0.9291,pf=0.92,Vminpu=0.92,Vmaxpu=1.5,model=1,daily=COM2_2,status=variable
new load.3000103978M1 bus1=RML1050737592.1.0,Phases=1,kv=0.127,kW=0.6871,pf=0.92,Vminpu=0.92,Vmaxpu=1.5,model=1,daily=RES2_2,status=variable
new load.3000103986M1 bus1=RML1050737711.3.0,Phases=1,kv=0.127,kW=0.75152,pf=0.92,Vminpu=0.92,Vmaxpu=1.5,model=1,daily=RES2_2,status=variable
new load.3000103994M1 bus1=RML1050742653.1.3.0,Phases=2,kv=0.22,kW=2.9668,pf=0.92,Vminpu=0.92,Vmaxpu=1.5,model=1,daily=RES4_3,status=variable
new load.3000104003M1 bus1=RML1050742744.1.0,Phases=1,kv=0.127,kW=0.01748,pf=0.92,Vminpu=0.92,Vmaxpu=1.5,model=1,daily=COM1_4,status=variable
new load.3000104011M1 bus1=RML1050742709.2.0,Phases=1,kv=0.127,kW=0.3469,pf=0.92,Vminpu=0.92,Vmaxpu=1.5,model=1,daily=RES1_1,status=variable
new load.3000104019M1 bus1=RML1050742828.1.0,Phases=1,kv=0.127,kW=0.57974,pf=0.92,Vminpu=0.92,Vmaxpu=1.5,model=1,daily=RES2_2,status=variable
new load.3000104028M1 bus1=RML1050743003.2.0,Phases=1,kv=0.127,kW=1.26686,pf=0.92,Vminpu=0.92,Vmaxpu=1.5,model=1,daily=RES2_2,status=variable
new load.3000104036M1 bus1=RML1050743045.1.0,Phases=1,kv=0.127,kW=0.86604,pf=0.92,Vminpu=0.92,Vmaxpu=1.5,model=1,daily=RES2_2,status=variable
new load.3000104045M1 bus1=RML1050746650.2.3.0,Phases=2,kv=0.22,kW=0.19628,pf=0.92,Vminpu=0.92,Vmaxpu=1.5,model=1,daily=COM1_4,status=variable
new load.3000104054M1 bus1=RML1050748176.3.0,Phases=1,kv=0.127,kW=0.5992,pf=0.92,Vminpu=0.92,Vmaxpu=1.5,model=1,daily=RES1_1,status=variable
new load.3000104062M1 bus1=RML1050746811.3.0,Phases=1,kv=0.127,kW=0.83026,pf=0.92,Vminpu=0.92,Vmaxpu=1.5,model=1,daily=RES2_2,status=variable
new load.3000104071M1 bus1=RML1050748232.1.0,Phases=1,kv=0.127,kW=0.78732,pf=0.92,Vminpu=0.92,Vmaxpu=1.5,model=1,daily=RES2_2,status=variable
new load.3000104079M1 bus1=RML1050749877.2.0,Phases=1,kv=0.127,kW=0.88752,pf=0.92,Vminpu=0.92,Vmaxpu=1.5,model=1,daily=RES2_2,status=variable
new load.3000104087M1 bus1=RML1050749828.1.0,Phases=1,kv=0.127,kW=0.30486,pf=0.92,Vminpu=0.92,Vmaxpu=1.5,model=1,daily=RES1_1,status=variable
new load.3000104096M1 bus1=RML1050750080.3.0,Phases=1,kv=0.127,kW=0.90182,pf=0.92,Vminpu=0.92,Vmaxpu=1.5,model=1,daily=RES2_2,status=variable
new load.3000104104M1 bus1=RML1050750199.2.0,Phases=1,kv=0.127,kW=0.19324,pf=0.92,Vminpu=0.92,Vmaxpu=1.5,model=1,daily=RES2_2,status=variable
new load.3000104113M1 bus1=RML1050750010.3.0,Phases=1,kv=0.127,kW=0.52964,pf=0.92,Vminpu=0.92,Vmaxpu=1.5,model=1,daily=RES2_2,status=variable
new load.3000104121M1 bus1=RML1055614597.3.0,Phases=1,kv=0.127,kW=2.30046,pf=0.92,Vminpu=0.92,Vmaxpu=1.5,model=1,daily=RES4_3,status=variable
new load.3000104130M1 bus1=RML1050747252.1.2.3.0,Phases=3,kv=0.22,kW=0.9461,pf=0.92,Vminpu=0.92,Vmaxpu=1.5,model=1,daily=RES1_1,status=variable
new load.3000104138M1 bus1=RML1050747245.1.0,Phases=1,kv=0.127,kW=1.1237,pf=0.92,Vminpu=0.92,Vmaxpu=1.5,model=1,daily=RES2_2,status=variable
new load.3000104148M1 bus1=RML1050747455.2.0,Phases=1,kv=0.127,kW=0.8732,pf=0.92,Vminpu=0.92,Vmaxpu=1.5,model=1,daily=RES2_2,status=variable
new load.3000104157M1 bus1=RML1050747441.3.0,Phases=1,kv=0.127,kW=1.56634,pf=0.92,Vminpu=0.92,Vmaxpu=1.5,model=1,daily=COM2_2,status=variable
new load.3000104165M1 bus1=RML1050747140.2.0,Phases=1,kv=0.127,kW=0.45808,pf=0.92,Vminpu=0.92,Vmaxpu=1.5,model=1,daily=RES2_2,status=variable
new load.3000104173M1 bus1=RML1050746972.2.0,Phases=1,kv=0.127,kW=0.61554,pf=0.92,Vminpu=0.92,Vmaxpu=1.5,model=1,daily=RES2_2,status=variable
new load.3000104181M1 bus1=RML1050746993.2.0,Phases=1,kv=0.127,kW=0.37934,pf=0.92,Vminpu=0.92,Vmaxpu=1.5,model=1,daily=RES2_2,status=variable
new load.3000104189M1 bus1=RML1050746909.1.3.0,Phases=2,kv=0.22,kW=0.90508,pf=0.92,Vminpu=0.92,Vmaxpu=1.5,model=1,daily=COM2_2,status=variable
new load.3000103966M1 bus1=RML1050737522.1.2.3.0,Phases=3,kv=0.22,kW=0.19324,pf=0.92,Vminpu=0.92,Vmaxpu=1.5,model=1,daily=RES2_2,status=variable
new load.3000103974M1 bus1=RML1050737655.2.0,Phases=1,kv=0.127,kW=1.70546,pf=0.92,Vminpu=0.92,Vmaxpu=1.5,model=1,daily=RES5_4,status=variable
new load.3000103982M1 bus1=RML1050737725.3.0,Phases=1,kv=0.127,kW=0.29434,pf=0.92,Vminpu=0.92,Vmaxpu=1.5,model=1,daily=RES1_1,status=variable
new load.3000103990M1 bus1=RML1050742632.1.2.0,Phases=2,kv=0.22,kW=0.24336,pf=0.92,Vminpu=0.92,Vmaxpu=1.5,model=1,daily=RES2_2,status=variable
new load.3000103998M1 bus1=RML1050742674.2.0,Phases=1,kv=0.127,kW=1.18812,pf=0.92,Vminpu=0.92,Vmaxpu=1.5,model=1,daily=RES2_2,status=variable
new load.3000104007M1 bus1=RML1050742779.1.2.3.0,Phases=3,kv=0.22,kW=0.52274,pf=0.92,Vminpu=0.92,Vmaxpu=1.5,model=1,daily=COM1_4,status=variable
new load.3000104015M1 bus1=RML1050742856.2.0,Phases=1,kv=0.127,kW=0.67996,pf=0.92,Vminpu=0.92,Vmaxpu=1.5,model=1,daily=RES2_2,status=variable
new load.3000104032M1 bus1=RML1050743024.2.0,Phases=1,kv=0.127,kW=0.93762,pf=0.92,Vminpu=0.92,Vmaxpu=1.5,model=1,daily=RES2_2,status=variable
new load.3000104040M1 bus1=RML1050746559.2.0,Phases=1,kv=0.127,kW=0.57818,pf=0.92,Vminpu=0.92,Vmaxpu=1.5,model=1,daily=RES1_1,status=variable
new load.3000104050M1 bus1=RML1050748106.1.0,Phases=1,kv=0.127,kW=0.71574,pf=0.92,Vminpu=0.92,Vmaxpu=1.5,model=1,daily=RES2_2,status=variable
new load.3000104058M1 bus1=RML1050748099.1.0,Phases=1,kv=0.127,kW=0.88302,pf=0.92,Vminpu=0.92,Vmaxpu=1.5,model=1,daily=RES1_1,status=variable
new load.3000104067M1 bus1=RML1050748260.1.0,Phases=1,kv=0.127,kW=0.75152,pf=0.92,Vminpu=0.92,Vmaxpu=1.5,model=1,daily=RES2_2,status=variable
new load.3000104075M1 bus1=RML1054995608.1.0,Phases=1,kv=0.127,kW=2.4036,pf=0.92,Vminpu=0.92,Vmaxpu=1.5,model=1,daily=RES4_3,status=variable
new load.3000104083M1 bus1=RML1050749884.2.0,Phases=1,kv=0.127,kW=0.15768,pf=0.92,Vminpu=0.92,Vmaxpu=1.5,model=1,daily=RES1_1,status=variable
new load.3000104092M1 bus1=RML1050750038.1.0,Phases=1,kv=0.127,kW=0.74636,pf=0.92,Vminpu=0.92,Vmaxpu=1.5,model=1,daily=RES1_1,status=variable
new load.3000104108M1 bus1=RML1059106455.2.0,Phases=1,kv=0.127,kW=0.85172,pf=0.92,Vminpu=0.92,Vmaxpu=1.5,model=1,daily=RES2_2,status=variable
new load.3000104117M1 bus1=RML1050749926.2.0,Phases=1,kv=0.127,kW=0.6833,pf=0.92,Vminpu=0.92,Vmaxpu=1.5,model=1,daily=RES1_1,status=variable
new load.3000104125M1 bus1=RML1050747385.2.0,Phases=1,kv=0.127,kW=1.06644,pf=0.92,Vminpu=0.92,Vmaxpu=1.5,model=1,daily=RES2_2,status=variable
new load.3000104134M1 bus1=RML1050748197.2.0,Phases=1,kv=0.127,kW=0.78016,pf=0.92,Vminpu=0.92,Vmaxpu=1.5,model=1,daily=RES2_2,status=variable
new load.3000104152M1 bus1=RML1050747490.3.0,Phases=1,kv=0.127,kW=0.83026,pf=0.92,Vminpu=0.92,Vmaxpu=1.5,model=1,daily=RES2_2,status=variable
new load.3000104161M1 bus1=RML1050740441.2.0,Phases=1,kv=0.127,kW=0.36502,pf=0.92,Vminpu=0.92,Vmaxpu=1.5,model=1,daily=RES2_2,status=variable
new load.3000104169M1 bus1=RML1050747056.2.0,Phases=1,kv=0.127,kW=1.00918,pf=0.92,Vminpu=0.92,Vmaxpu=1.5,model=1,daily=RES2_2,status=variable
new load.3000104177M1 bus1=RML1050747105.1.0,Phases=1,kv=0.127,kW=0.15072,pf=0.92,Vminpu=0.92,Vmaxpu=1.5,model=1,daily=RES4_3,status=variable
new load.3000104185M1 bus1=RML1050746916.3.0,Phases=1,kv=0.127,kW=0.09004,pf=0.92,Vminpu=0.92,Vmaxpu=1.5,model=1,daily=RES5_4,status=variable
new load.3000104194M1 bus1=RML1050746874.2.0,Phases=1,kv=0.127,kW=0.11452,pf=0.92,Vminpu=0.92,Vmaxpu=1.5,model=1,daily=RES2_2,status=variable
new load.3000104204M1 bus1=RML1050741505.3.0,Phases=1,kv=0.127,kW=0.84098,pf=0.92,Vminpu=0.92,Vmaxpu=1.5,model=1,daily=RES1_1,status=variable
new load.3000104208M1 bus1=RML1050741540.1.0,Phases=1,kv=0.127,kW=0.85306,pf=0.92,Vminpu=0.92,Vmaxpu=1.5,model=1,daily=RES3_2,status=variable
new load.3000104217M1 bus1=RML1050741666.1.0,Phases=1,kv=0.127,kW=0.22904,pf=0.92,Vminpu=0.92,Vmaxpu=1.5,model=1,daily=RES2_2,status=variable
new load.3000104225M1 bus1=RML1050741519.3.0,Phases=1,kv=0.127,kW=1.51048,pf=0.92,Vminpu=0.92,Vmaxpu=1.5,model=1,daily=RES3_2,status=variable
new load.3000104237M1 bus1=RML1050741477.1.0,Phases=1,kv=0.127,kW=1.52614,pf=0.92,Vminpu=0.92,Vmaxpu=1.5,model=1,daily=RES3_2,status=variable
new load.3000104245M1 bus1=RML1050740210.2.0,Phases=1,kv=0.127,kW=1.18178,pf=0.92,Vminpu=0.92,Vmaxpu=1.5,model=1,daily=RES3_2,status=variable
new load.3000104253M1 bus1=RML1050741274.3.0,Phases=1,kv=0.127,kW=2.1131,pf=0.92,Vminpu=0.92,Vmaxpu=1.5,model=1,daily=RES3_2,status=variable
new load.3000104261M1 bus1=RML1050741344.2.0,Phases=1,kv=0.127,kW=0.57258,pf=0.92,Vminpu=0.92,Vmaxpu=1.5,model=1,daily=RES2_2,status=variable
new load.3000104269M1 bus1=RML1050741421.2.0,Phases=1,kv=0.127,kW=1.26004,pf=0.92,Vminpu=0.92,Vmaxpu=1.5,model=1,daily=RES3_2,status=variable
new load.3000104277M1 bus1=RML1050740448.2.0,Phases=1,kv=0.127,kW=1.7844,pf=0.92,Vminpu=0.92,Vmaxpu=1.5,model=1,daily=RES3_2,status=variable
new load.3000104285M1 bus1=RML1050740399.2.0,Phases=1,kv=0.127,kW=1.40284,pf=0.92,Vminpu=0.92,Vmaxpu=1.5,model=1,daily=RES2_2,status=variable
new load.3000104294M1 bus1=RML1050741120.2.0,Phases=1,kv=0.127,kW=0.73586,pf=0.92,Vminpu=0.92,Vmaxpu=1.5,model=1,daily=RES1_1,status=variable
new load.3000104303M1 bus1=RML1050741085.2.0,Phases=1,kv=0.127,kW=1.38526,pf=0.92,Vminpu=0.92,Vmaxpu=1.5,model=1,daily=RES3_2,status=variable
new load.3000104313M1 bus1=RML1050740007.1.0,Phases=1,kv=0.127,kW=0.61554,pf=0.92,Vminpu=0.92,Vmaxpu=1.5,model=1,daily=RES2_2,status=variable
new load.3000104330M1 bus1=RML1050740112.1.0,Phases=1,kv=0.127,kW=1.40408,pf=0.92,Vminpu=0.92,Vmaxpu=1.5,model=1,daily=RES4_3,status=variable
new load.3000104338M1 bus1=RML1050740154.2.0,Phases=1,kv=0.127,kW=0.02102,pf=0.92,Vminpu=0.92,Vmaxpu=1.5,model=1,daily=RES1_1,status=variable
new load.3000104346M1 bus1=RML1050740042.1.0,Phases=1,kv=0.127,kW=0.74234,pf=0.92,Vminpu=0.92,Vmaxpu=1.5,model=1,daily=COM1_4,status=variable
new load.3000104356M1 bus1=RML1050737550.3.0,Phases=1,kv=0.127,kW=2.39486,pf=0.92,Vminpu=0.92,Vmaxpu=1.5,model=1,daily=RES3_2,status=variable
new load.3000104364M1 bus1=RML1050734169.1.2.0,Phases=2,kv=0.22,kW=1.03918,pf=0.92,Vminpu=0.92,Vmaxpu=1.5,model=1,daily=RES4_3,status=variable
new load.3000104373M1 bus1=RML1050736304.1.0,Phases=1,kv=0.127,kW=3.55382,pf=0.92,Vminpu=0.92,Vmaxpu=1.5,model=1,daily=RES4_3,status=variable
new load.3000104384M1 bus1=RML1050749086.2.0,Phases=1,kv=0.127,kW=1.79222,pf=0.92,Vminpu=0.92,Vmaxpu=1.5,model=1,daily=RES3_2,status=variable
new load.3000104392M1 bus1=RML1050750969.1.0,Phases=1,kv=0.127,kW=0.73006,pf=0.92,Vminpu=0.92,Vmaxpu=1.5,model=1,daily=RES2_2,status=variable
new load.3000104400M1 bus1=RML1054935121.1.2.3.0,Phases=3,kv=0.22,kW=0.66226,pf=0.92,Vminpu=0.92,Vmaxpu=1.5,model=1,daily=RES1_1,status=variable
new load.3000104408M1 bus1=RML1050999917.3.0,Phases=1,kv=0.127,kW=0.6227,pf=0.92,Vminpu=0.92,Vmaxpu=1.5,model=1,daily=RES2_2,status=variable
new load.3000104424M1 bus1=RML1050752985.1.0,Phases=1,kv=0.127,kW=0.95194,pf=0.92,Vminpu=0.92,Vmaxpu=1.5,model=1,daily=RES2_2,status=variable
new load.3000104432M1 bus1=RML1050753160.2.0,Phases=1,kv=0.127,kW=0.70858,pf=0.92,Vminpu=0.92,Vmaxpu=1.5,model=1,daily=RES2_2,status=variable
new load.3000104440M1 bus1=RML1050751977.3.0,Phases=1,kv=0.127,kW=0.97764,pf=0.92,Vminpu=0.92,Vmaxpu=1.5,model=1,daily=RES1_1,status=variable
new load.3000103983M1 bus1=RML1050737718.3.0,Phases=1,kv=0.127,kW=2.12094,pf=0.92,Vminpu=0.92,Vmaxpu=1.5,model=1,daily=RES3_2,status=variable
new load.3000103991M1 bus1=RML1050742625.1.0,Phases=1,kv=0.127,kW=0.91456,pf=0.92,Vminpu=0.92,Vmaxpu=1.5,model=1,daily=RES1_1,status=variable
new load.3000103999M1 bus1=RML1050742681.2.3.0,Phases=2,kv=0.22,kW=2.2305,pf=0.92,Vminpu=0.92,Vmaxpu=1.5,model=1,daily=RES3_2,status=variable
new load.3000104008M1 bus1=RML1050742702.3.0,Phases=1,kv=0.127,kW=0.79446,pf=0.92,Vminpu=0.92,Vmaxpu=1.5,model=1,daily=RES2_2,status=variable
new load.3000104016M1 bus1=RML1050742849.1.0,Phases=1,kv=0.127,kW=0.78842,pf=0.92,Vminpu=0.92,Vmaxpu=1.5,model=1,daily=RES1_1,status=variable
new load.3000104025M1 bus1=RML1050742961.3.0,Phases=1,kv=0.127,kW=0.60122,pf=0.92,Vminpu=0.92,Vmaxpu=1.5,model=1,daily=RES2_2,status=variable
new load.3000104033M1 bus1=RML1050743031.3.0,Phases=1,kv=0.127,kW=0.3364,pf=0.92,Vminpu=0.92,Vmaxpu=1.5,model=1,daily=RES1_1,status=variable
new load.3000104042M1 bus1=RML1050746587.3.0,Phases=1,kv=0.127,kW=1.16666,pf=0.92,Vminpu=0.92,Vmaxpu=1.5,model=1,daily=RES2_2,status=variable
new load.3000104059M1 bus1=RML1050746727.1.0,Phases=1,kv=0.127,kW=1.0736,pf=0.92,Vminpu=0.92,Vmaxpu=1.5,model=1,daily=RES2_2,status=variable
new load.3000104068M1 bus1=RML1050748302.1.0,Phases=1,kv=0.127,kW=2.62182,pf=0.92,Vminpu=0.92,Vmaxpu=1.5,model=1,daily=RES3_2,status=variable
new load.3000104076M1 bus1=RML1050748351.2.0,Phases=1,kv=0.127,kW=0.65132,pf=0.92,Vminpu=0.92,Vmaxpu=1.5,model=1,daily=RES2_2,status=variable
new load.3000104084M1 bus1=RML1050749891.2.0,Phases=1,kv=0.127,kW=0.38896,pf=0.92,Vminpu=0.92,Vmaxpu=1.5,model=1,daily=RES1_1,status=variable
new load.3000104093M1 bus1=RML1060101586.1.0,Phases=1,kv=0.127,kW=1.08792,pf=0.92,Vminpu=0.92,Vmaxpu=1.5,model=1,daily=RES2_2,status=variable
new load.3000104101M1 bus1=RML1060483317.2.0,Phases=1,kv=0.127,kW=0.61554,pf=0.92,Vminpu=0.92,Vmaxpu=1.5,model=1,daily=RES2_2,status=variable
new load.3000104110M1 bus1=RML1050749989.3.0,Phases=1,kv=0.127,kW=0.5256,pf=0.92,Vminpu=0.92,Vmaxpu=1.5,model=1,daily=RES1_1,status=variable
new load.3000104118M1 bus1=RML1050749800.3.0,Phases=1,kv=0.127,kW=0.50458,pf=0.92,Vminpu=0.92,Vmaxpu=1.5,model=1,daily=RES1_1,status=variable
new load.3000104126M1 bus1=RML1050747378.1.0,Phases=1,kv=0.127,kW=1.00918,pf=0.92,Vminpu=0.92,Vmaxpu=1.5,model=1,daily=RES2_2,status=variable
new load.3000104135M1 bus1=RML1050748204.2.0,Phases=1,kv=0.127,kW=0.76584,pf=0.92,Vminpu=0.92,Vmaxpu=1.5,model=1,daily=RES2_2,status=variable
new load.3000104144M1 bus1=RML1050747434.2.0,Phases=1,kv=0.127,kW=0.6871,pf=0.92,Vminpu=0.92,Vmaxpu=1.5,model=1,daily=RES2_2,status=variable
new load.3000104153M1 bus1=RML1050747476.2.0,Phases=1,kv=0.127,kW=1.30264,pf=0.92,Vminpu=0.92,Vmaxpu=1.5,model=1,daily=RES2_2,status=variable
new load.3000104162M1 bus1=RML1050747224.3.0,Phases=1,kv=0.127,kW=0.81996,pf=0.92,Vminpu=0.92,Vmaxpu=1.5,model=1,daily=RES1_1,status=variable
new load.3000104178M1 bus1=RML1050747112.2.0,Phases=1,kv=0.127,kW=0.78842,pf=0.92,Vminpu=0.92,Vmaxpu=1.5,model=1,daily=RES1_1,status=variable
new load.3000104186M1 bus1=RML1050746923.2.0,Phases=1,kv=0.127,kW=0.49386,pf=0.92,Vminpu=0.92,Vmaxpu=1.5,model=1,daily=RES2_2,status=variable
new load.3000104197M1 bus1=RML1050742933.1.0,Phases=1,kv=0.127,kW=0.431,pf=0.92,Vminpu=0.92,Vmaxpu=1.5,model=1,daily=RES1_1,status=variable
new load.3000104205M1 bus1=RML1050741491.2.0,Phases=1,kv=0.127,kW=1.09508,pf=0.92,Vminpu=0.92,Vmaxpu=1.5,model=1,daily=RES2_2,status=variable
new load.3000103972M1 bus1=RML1050737739.2.0,Phases=1,kv=0.127,kW=0.7372,pf=0.92,Vminpu=0.92,Vmaxpu=1.5,model=1,daily=RES2_2,status=variable
new load.3000103980M1 bus1=RML1050737704.1.0,Phases=1,kv=0.127,kW=2.41946,pf=0.92,Vminpu=0.92,Vmaxpu=1.5,model=1,daily=RES4_3,status=variable
new load.3000103988M1 bus1=RML1050742611.2.0,Phases=1,kv=0.127,kW=1.4601,pf=0.92,Vminpu=0.92,Vmaxpu=1.5,model=1,daily=RES2_2,status=variable
new load.3000103996M1 bus1=RML1050742660.1.0,Phases=1,kv=0.127,kW=0.47954,pf=0.92,Vminpu=0.92,Vmaxpu=1.5,model=1,daily=RES2_2,status=variable
new load.3000104005M1 bus1=RML1050742793.2.0,Phases=1,kv=0.127,kW=0.05256,pf=0.92,Vminpu=0.92,Vmaxpu=1.5,model=1,daily=RES1_1,status=variable
new load.3000104013M1 bus1=RML1050742730.2.0,Phases=1,kv=0.127,kW=0.90898,pf=0.92,Vminpu=0.92,Vmaxpu=1.5,model=1,daily=RES2_2,status=variable
new load.3000104022M1 bus1=RML1050742891.1.0,Phases=1,kv=0.127,kW=0.30486,pf=0.92,Vminpu=0.92,Vmaxpu=1.5,model=1,daily=RES1_1,status=variable
new load.3000104030M1 bus1=RML1050742989.1.0,Phases=1,kv=0.127,kW=0.02102,pf=0.92,Vminpu=0.92,Vmaxpu=1.5,model=1,daily=RES1_1,status=variable
new load.3000104038M1 bus1=RML1050746636.2.0,Phases=1,kv=0.127,kW=1.38854,pf=0.92,Vminpu=0.92,Vmaxpu=1.5,model=1,daily=RES2_2,status=variable
new load.3000104048M1 bus1=RML1050746741.2.0,Phases=1,kv=0.127,kW=0.75868,pf=0.92,Vminpu=0.92,Vmaxpu=1.5,model=1,daily=RES2_2,status=variable
new load.3000104056M1 bus1=RML1050748141.1.2.0,Phases=2,kv=0.22,kW=2.57018,pf=0.92,Vminpu=0.92,Vmaxpu=1.5,model=1,daily=RES4_3,status=variable
new load.3000104064M1 bus1=RML1050748148.3.0,Phases=1,kv=0.127,kW=1.43148,pf=0.92,Vminpu=0.92,Vmaxpu=1.5,model=1,daily=RES2_2,status=variable
new load.3000104073M1 bus1=RML1050748295.1.0,Phases=1,kv=0.127,kW=0.773,pf=0.92,Vminpu=0.92,Vmaxpu=1.5,model=1,daily=RES2_2,status=variable
new load.3000104081M1 bus1=RML1050749940.3.0,Phases=1,kv=0.127,kW=0.06308,pf=0.92,Vminpu=0.92,Vmaxpu=1.5,model=1,daily=RES1_1,status=variable
new load.3000104089M1 bus1=RML1050749898.1.3.0,Phases=2,kv=0.22,kW=2.2618,pf=0.92,Vminpu=0.92,Vmaxpu=1.5,model=1,daily=RES3_2,status=variable
new load.3000104098M1 bus1=RML1050750171.2.0,Phases=1,kv=0.127,kW=0.88752,pf=0.92,Vminpu=0.92,Vmaxpu=1.5,model=1,daily=RES2_2,status=variable
new load.3000104106M1 bus1=RML1050750108.1.0,Phases=1,kv=0.127,kW=0.6728,pf=0.92,Vminpu=0.92,Vmaxpu=1.5,model=1,daily=RES2_2,status=variable
new load.3000104115M1 bus1=RML1060046277.2.0,Phases=1,kv=0.127,kW=0.88036,pf=0.92,Vminpu=0.92,Vmaxpu=1.5,model=1,daily=RES2_2,status=variable
new load.3000104123M1 bus1=RML1050749849.3.0,Phases=1,kv=0.127,kW=0.97046,pf=0.92,Vminpu=0.92,Vmaxpu=1.5,model=1,daily=RES3_2,status=variable
new load.3000104132M1 bus1=RML1050747238.3.0,Phases=1,kv=0.127,kW=0.8488,pf=0.92,Vminpu=0.92,Vmaxpu=1.5,model=1,daily=RES4_3,status=variable
new load.3000104140M1 bus1=RML1050747322.1.0,Phases=1,kv=0.127,kW=0.7333,pf=0.92,Vminpu=0.92,Vmaxpu=1.5,model=1,daily=COM2_2,status=variable
new load.3000104150M1 bus1=RML1050748862.1.0,Phases=1,kv=0.127,kW=1.82354,pf=0.92,Vminpu=0.92,Vmaxpu=1.5,model=1,daily=RES3_2,status=variable
new load.3000104159M1 bus1=RML1050747231.2.0,Phases=1,kv=0.127,kW=0.65132,pf=0.92,Vminpu=0.92,Vmaxpu=1.5,model=1,daily=RES2_2,status=variable
new load.3000104167M1 bus1=RML1050747091.1.0,Phases=1,kv=0.127,kW=0.37844,pf=0.92,Vminpu=0.92,Vmaxpu=1.5,model=1,daily=RES1_1,status=variable
new load.3000104175M1 bus1=RML1050746958.3.0,Phases=1,kv=0.127,kW=0.50818,pf=0.92,Vminpu=0.92,Vmaxpu=1.5,model=1,daily=RES2_2,status=variable
new load.3000104183M1 bus1=RML1050747035.3.0,Phases=1,kv=0.127,kW=1.13086,pf=0.92,Vminpu=0.92,Vmaxpu=1.5,model=1,daily=RES2_2,status=variable
new load.3000104192M1 bus1=RML1050746881.3.0,Phases=1,kv=0.127,kW=3.01898,pf=0.92,Vminpu=0.92,Vmaxpu=1.5,model=1,daily=RES5_4,status=variable
new load.3000104202M1 bus1=RML1050742954.1.0,Phases=1,kv=0.127,kW=1.83136,pf=0.92,Vminpu=0.92,Vmaxpu=1.5,model=1,daily=RES3_2,status=variable
new load.3000104213M1 bus1=RML1050741596.3.0,Phases=1,kv=0.127,kW=1.24538,pf=0.92,Vminpu=0.92,Vmaxpu=1.5,model=1,daily=RES2_2,status=variable
new load.3000104221M1 bus1=RML1050741659.3.0,Phases=1,kv=0.127,kW=0.42048,pf=0.92,Vminpu=0.92,Vmaxpu=1.5,model=1,daily=RES1_1,status=variable
new load.3000104241M1 bus1=RML1050740238.1.0,Phases=1,kv=0.127,kW=0.61554,pf=0.92,Vminpu=0.92,Vmaxpu=1.5,model=1,daily=RES2_2,status=variable
new load.3000104257M1 bus1=RML1050741316.2.0,Phases=1,kv=0.127,kW=0.66564,pf=0.92,Vminpu=0.92,Vmaxpu=1.5,model=1,daily=RES2_2,status=variable
new load.3000104265M1 bus1=RML1050741393.1.0,Phases=1,kv=0.127,kW=0.44152,pf=0.92,Vminpu=0.92,Vmaxpu=1.5,model=1,daily=RES1_1,status=variable
new load.3000104273M1 bus1=RML1050741512.2.0,Phases=1,kv=0.127,kW=0.85148,pf=0.92,Vminpu=0.92,Vmaxpu=1.5,model=1,daily=RES1_1,status=variable
new load.3000104281M1 bus1=RML1050740378.2.0,Phases=1,kv=0.127,kW=1.76874,pf=0.92,Vminpu=0.92,Vmaxpu=1.5,model=1,daily=RES3_2,status=variable
new load.3000104290M1 bus1=RML1050740315.1.0,Phases=1,kv=0.127,kW=0.85888,pf=0.92,Vminpu=0.92,Vmaxpu=1.5,model=1,daily=RES2_2,status=variable
new load.3000104298M1 bus1=RML1050741148.1.0,Phases=1,kv=0.127,kW=0.02148,pf=0.92,Vminpu=0.92,Vmaxpu=1.5,model=1,daily=RES2_2,status=variable
new load.3000104308M1 bus1=RML1060312161.1.2.0,Phases=2,kv=0.22,kW=0.39946,pf=0.92,Vminpu=0.92,Vmaxpu=1.5,model=1,daily=RES1_1,status=variable
new load.3000104317M1 bus1=RML1050740084.3.0,Phases=1,kv=0.127,kW=1.91744,pf=0.92,Vminpu=0.92,Vmaxpu=1.5,model=1,daily=RES3_2,status=variable
new load.3000104326M1 bus1=RML1050740175.2.0,Phases=1,kv=0.127,kW=0.5869,pf=0.92,Vminpu=0.92,Vmaxpu=1.5,model=1,daily=RES2_2,status=variable
new load.3000104334M1 bus1=RML1050740035.1.0,Phases=1,kv=0.127,kW=0.56766,pf=0.92,Vminpu=0.92,Vmaxpu=1.5,model=1,daily=RES1_1,status=variable
new load.3000104342M1 bus1=RML1050740168.3.0,Phases=1,kv=0.127,kW=2.07622,pf=0.92,Vminpu=0.92,Vmaxpu=1.5,model=1,daily=RES5_4,status=variable
new load.3000104360M1 bus1=RML1050737515.3.0,Phases=1,kv=0.127,kW=1.58874,pf=0.92,Vminpu=0.92,Vmaxpu=1.5,model=1,daily=RES3_2,status=variable
new load.3000104369M1 bus1=RML1050737480.1.2.3.0,Phases=3,kv=0.22,kW=0.96624,pf=0.92,Vminpu=0.92,Vmaxpu=1.5,model=1,daily=RES2_2,status=variable
new load.3000104377M1 bus1=RML1050734582.1.2.3.0,Phases=3,kv=0.22,kW=2.6959,pf=0.92,Vminpu=0.92,Vmaxpu=1.5,model=1,daily=RES5_4,status=variable
new load.3000104388M1 bus1=RML1050750927.3.0,Phases=1,kv=0.127,kW=0.74436,pf=0.92,Vminpu=0.92,Vmaxpu=1.5,model=1,daily=RES2_2,status=variable
new load.3000104396M1 bus1=RML1050751760.2.0,Phases=1,kv=0.127,kW=0.55828,pf=0.92,Vminpu=0.92,Vmaxpu=1.5,model=1,daily=RES2_2,status=variable
new load.3000104420M1 bus1=RML1050752957.3.0,Phases=1,kv=0.127,kW=0.9461,pf=0.92,Vminpu=0.92,Vmaxpu=1.5,model=1,daily=RES1_1,status=variable
new load.3000104428M1 bus1=RML1050753153.1.0,Phases=1,kv=0.127,kW=1.0409,pf=0.92,Vminpu=0.92,Vmaxpu=1.5,model=1,daily=RES3_2,status=variable
new load.3000104436M1 bus1=RML1050999714.3.0,Phases=1,kv=0.127,kW=0.78842,pf=0.92,Vminpu=0.92,Vmaxpu=1.5,model=1,daily=RES1_1,status=variable
new load.3000104444M1 bus1=RML1050751998.2.0,Phases=1,kv=0.127,kW=2.50442,pf=0.92,Vminpu=0.92,Vmaxpu=1.5,model=1,daily=RES3_2,status=variable
new load.3000103963M1 bus1=RML1050736346.2.0,Phases=1,kv=0.127,kW=1.04498,pf=0.92,Vminpu=0.92,Vmaxpu=1.5,model=1,daily=RES2_2,status=variable
new load.3000103979M1 bus1=RML1050737564.1.2.3.0,Phases=3,kv=0.22,kW=2.88128,pf=0.92,Vminpu=0.92,Vmaxpu=1.5,model=1,daily=RES5_4,status=variable
new load.3000103987M1 bus1=RML1050737753.3.0,Phases=1,kv=0.127,kW=2.66412,pf=0.92,Vminpu=0.92,Vmaxpu=1.5,model=1,daily=RES5_4,status=variable
new load.3000103995M1 bus1=RML1050742688.3.0,Phases=1,kv=0.127,kW=2.2132,pf=0.92,Vminpu=0.92,Vmaxpu=1.5,model=1,daily=RES4_3,status=variable
new load.3000104004M1 bus1=RML1050742758.1.0,Phases=1,kv=0.127,kW=0.7372,pf=0.92,Vminpu=0.92,Vmaxpu=1.5,model=1,daily=RES2_2,status=variable
new load.3000104012M1 bus1=RML1050742716.3.0,Phases=1,kv=0.127,kW=0.95194,pf=0.92,Vminpu=0.92,Vmaxpu=1.5,model=1,daily=RES2_2,status=variable
new load.3000104020M1 bus1=RML1050742877.3.0,Phases=1,kv=0.127,kW=1.9957,pf=0.92,Vminpu=0.92,Vmaxpu=1.5,model=1,daily=RES3_2,status=variable
new load.3000104029M1 bus1=RML1050742982.2.3.0,Phases=2,kv=0.22,kW=0.71574,pf=0.92,Vminpu=0.92,Vmaxpu=1.5,model=1,daily=RES2_2,status=variable
new load.3000104037M1 bus1=RML1050746643.3.0,Phases=1,kv=0.127,kW=0.52248,pf=0.92,Vminpu=0.92,Vmaxpu=1.5,model=1,daily=RES2_2,status=variable
new load.3000104047M1 bus1=RML1050746734.3.0,Phases=1,kv=0.127,kW=0.85172,pf=0.92,Vminpu=0.92,Vmaxpu=1.5,model=1,daily=RES2_2,status=variable
new load.3000104055M1 bus1=RML1050748183.2.3.0,Phases=2,kv=0.22,kW=2.19734,pf=0.92,Vminpu=0.92,Vmaxpu=1.5,model=1,daily=RES4_3,status=variable
new load.3000104063M1 bus1=RML1050746832.3.0,Phases=1,kv=0.127,kW=0.773,pf=0.92,Vminpu=0.92,Vmaxpu=1.5,model=1,daily=RES2_2,status=variable
new load.3000104072M1 bus1=RML1050748253.3.0,Phases=1,kv=0.127,kW=1.08792,pf=0.92,Vminpu=0.92,Vmaxpu=1.5,model=1,daily=RES2_2,status=variable
new load.3000104088M1 bus1=RML1050749821.3.0,Phases=1,kv=0.127,kW=0.4867,pf=0.92,Vminpu=0.92,Vmaxpu=1.5,model=1,daily=RES2_2,status=variable
new load.3000104097M1 bus1=RML1050750192.3.0,Phases=1,kv=0.127,kW=1.18812,pf=0.92,Vminpu=0.92,Vmaxpu=1.5,model=1,daily=RES2_2,status=variable
new load.3000104105M1 bus1=RML1050750101.2.0,Phases=1,kv=0.127,kW=0.6833,pf=0.92,Vminpu=0.92,Vmaxpu=1.5,model=1,daily=RES1_1,status=variable
new load.3000104114M1 bus1=RML1050750017.2.0,Phases=1,kv=0.127,kW=1.29916,pf=0.92,Vminpu=0.92,Vmaxpu=1.5,model=1,daily=RES3_2,status=variable
new load.3000104122M1 bus1=RML1050749835.3.0,Phases=1,kv=0.127,kW=0.78016,pf=0.92,Vminpu=0.92,Vmaxpu=1.5,model=1,daily=RES2_2,status=variable
new load.3000104131M1 bus1=RML1050748218.1.0,Phases=1,kv=0.127,kW=0.34202,pf=0.92,Vminpu=0.92,Vmaxpu=1.5,model=1,daily=COM1_4,status=variable
new load.3000104149M1 bus1=RML1050747462.2.0,Phases=1,kv=0.127,kW=0.58868,pf=0.92,Vminpu=0.92,Vmaxpu=1.5,model=1,daily=RES1_1,status=variable
new load.3000104158M1 bus1=RML1060332758.1.2.3.0,Phases=3,kv=0.22,kW=12.31494,pf=0.92,Vminpu=0.92,Vmaxpu=1.5,model=1,daily=COM4_3,status=variable
new load.3000104166M1 bus1=RML1050747147.3.0,Phases=1,kv=0.127,kW=0.6728,pf=0.92,Vminpu=0.92,Vmaxpu=1.5,model=1,daily=RES2_2,status=variable
new load.3000104174M1 bus1=RML1050746965.3.0,Phases=1,kv=0.127,kW=1.44786,pf=0.92,Vminpu=0.92,Vmaxpu=1.5,model=1,daily=RES3_2,status=variable
new load.3000104182M1 bus1=RML1050747028.2.0,Phases=1,kv=0.127,kW=0.71574,pf=0.92,Vminpu=0.92,Vmaxpu=1.5,model=1,daily=RES2_2,status=variable
new load.3000104190M1 bus1=RML1050746895.2.0,Phases=1,kv=0.127,kW=0.05726,pf=0.92,Vminpu=0.92,Vmaxpu=1.5,model=1,daily=RES2_2,status=variable
new load.3000104201M1 bus1=RML1050742947.1.2.0,Phases=2,kv=0.22,kW=0.55112,pf=0.92,Vminpu=0.92,Vmaxpu=1.5,model=1,daily=RES2_2,status=variable
new load.3000103965M1 bus1=RML1050737536.2.0,Phases=1,kv=0.127,kW=0.94478,pf=0.92,Vminpu=0.92,Vmaxpu=1.5,model=1,daily=RES2_2,status=variable
new load.3000103973M1 bus1=RML1050737648.3.0,Phases=1,kv=0.127,kW=1.05214,pf=0.92,Vminpu=0.92,Vmaxpu=1.5,model=1,daily=RES2_2,status=variable
new load.3000103981M1 bus1=RML1050737697.1.0,Phases=1,kv=0.127,kW=0.80162,pf=0.92,Vminpu=0.92,Vmaxpu=1.5,model=1,daily=RES2_2,status=variable
new load.3000103989M1 bus1=RML1050742618.3.0,Phases=1,kv=0.127,kW=1.13802,pf=0.92,Vminpu=0.92,Vmaxpu=1.5,model=1,daily=RES2_2,status=variable
new load.3000104031M1 bus1=RML1050742975.1.0,Phases=1,kv=0.127,kW=0.70142,pf=0.92,Vminpu=0.92,Vmaxpu=1.5,model=1,daily=RES2_2,status=variable
new load.3000104039M1 bus1=RML1050746573.1.2.0,Phases=2,kv=0.22,kW=0.6227,pf=0.92,Vminpu=0.92,Vmaxpu=1.5,model=1,daily=RES2_2,status=variable
new load.3000104049M1 bus1=RML1050746748.2.0,Phases=1,kv=0.127,kW=0.46446,pf=0.92,Vminpu=0.92,Vmaxpu=1.5,model=1,daily=COM1_4,status=variable
new load.3000104057M1 bus1=RML1050748127.2.0,Phases=1,kv=0.127,kW=1.05214,pf=0.92,Vminpu=0.92,Vmaxpu=1.5,model=1,daily=RES2_2,status=variable
new load.3000104065M1 bus1=RML1050748267.1.0,Phases=1,kv=0.127,kW=0.50458,pf=0.92,Vminpu=0.92,Vmaxpu=1.5,model=1,daily=RES1_1,status=variable
new load.3000104082M1 bus1=RML1050749870.1.0,Phases=1,kv=0.127,kW=0.27332,pf=0.92,Vminpu=0.92,Vmaxpu=1.5,model=1,daily=RES1_1,status=variable
new load.3000104091M1 bus1=RML1050750045.3.0,Phases=1,kv=0.127,kW=0.18922,pf=0.92,Vminpu=0.92,Vmaxpu=1.5,model=1,daily=RES1_1,status=variable
new load.3000104107M1 bus1=RML1050750115.2.0,Phases=1,kv=0.127,kW=0.5869,pf=0.92,Vminpu=0.92,Vmaxpu=1.5,model=1,daily=RES2_2,status=variable
new load.3000104116M1 bus1=RML1050749933.2.0,Phases=1,kv=0.127,kW=0.09134,pf=0.92,Vminpu=0.92,Vmaxpu=1.5,model=1,daily=COM1_4,status=variable
new load.3000104124M1 bus1=RML1050749758.2.0,Phases=1,kv=0.127,kW=0.83742,pf=0.92,Vminpu=0.92,Vmaxpu=1.5,model=1,daily=RES2_2,status=variable
new load.3000104133M1 bus1=RML1050748190.1.0,Phases=1,kv=0.127,kW=0.64906,pf=0.92,Vminpu=0.92,Vmaxpu=1.5,model=1,daily=COM1_4,status=variable
new load.3000104142M1 bus1=RML1050747364.1.0,Phases=1,kv=0.127,kW=0.80878,pf=0.92,Vminpu=0.92,Vmaxpu=1.5,model=1,daily=RES2_2,status=variable
new load.3000104151M1 bus1=RML1050747497.1.0,Phases=1,kv=0.127,kW=0.78016,pf=0.92,Vminpu=0.92,Vmaxpu=1.5,model=1,daily=RES2_2,status=variable
new load.3000104160M1 bus1=RML1050747154.2.0,Phases=1,kv=0.127,kW=0.4366,pf=0.92,Vminpu=0.92,Vmaxpu=1.5,model=1,daily=RES2_2,status=variable
new load.3000104168M1 bus1=RML1060622255.3.0,Phases=1,kv=0.127,kW=0.44152,pf=0.92,Vminpu=0.92,Vmaxpu=1.5,model=1,daily=RES1_1,status=variable
new load.3000104176M1 bus1=RML1050747098.3.0,Phases=1,kv=0.127,kW=1.1595,pf=0.92,Vminpu=0.92,Vmaxpu=1.5,model=1,daily=RES2_2,status=variable
new load.3000104193M1 bus1=RML1050746867.3.0,Phases=1,kv=0.127,kW=2.07042,pf=0.92,Vminpu=0.92,Vmaxpu=1.5,model=1,daily=RES4_3,status=variable
new load.3000104203M1 bus1=RML1054935233.1.2.0,Phases=2,kv=0.22,kW=1.33048,pf=0.92,Vminpu=0.92,Vmaxpu=1.5,model=1,daily=RES3_2,status=variable
new load.3000103959M1 bus1=RML1050736276.1.2.0,Phases=2,kv=0.22,kW=0.79446,pf=0.92,Vminpu=0.92,Vmaxpu=1.5,model=1,daily=RES2_2,status=variable
new load.3000103968M1 bus1=RML1050737571.3.0,Phases=1,kv=0.127,kW=1.51048,pf=0.92,Vminpu=0.92,Vmaxpu=1.5,model=1,daily=RES3_2,status=variable
new load.3000103976M1 bus1=RML1050737669.1.0,Phases=1,kv=0.127,kW=1.80006,pf=0.92,Vminpu=0.92,Vmaxpu=1.5,model=1,daily=RES3_2,status=variable
new load.3000103984M1 bus1=RML1050737690.2.3.0,Phases=2,kv=0.22,kW=0.58868,pf=0.92,Vminpu=0.92,Vmaxpu=1.5,model=1,daily=RES1_1,status=variable
new load.3000103992M1 bus1=RML1050742639.2.0,Phases=1,kv=0.127,kW=0.3469,pf=0.92,Vminpu=0.92,Vmaxpu=1.5,model=1,daily=RES1_1,status=variable