! manter este comentario para compatibilidade do C#
new circuit.alimAMN06 bus1=BMT98423600.1.2.3,basekv=13.800000000,pu=1.040000000

