new line.1037464 bus1=BBT439882.1.2.3.0,bus2=BBT439973.1.2.3.0,Phases=3,Linecode=BT803_BT803_4_3_4,Length=0.026077000,Units=km
new line.1037485 bus1=BBT439889.1.2.3.0,bus2=BBT3846600.1.2.3.0,Phases=3,Linecode=BT803_BT803_4_3_4,Length=0.032757000,Units=km
new line.1037499 bus1=BBT439896.1.2.3.0,bus2=BBT439882.1.2.3.0,Phases=3,Linecode=BT803_BT803_4_3_4,Length=0.029155000,Units=km
new line.1037506 bus1=BBT439889.1.2.3.0,bus2=BBT439896.1.2.3.0,Phases=3,Linecode=BT803_BT803_4_3_4,Length=0.034986000,Units=km
new line.1037513 bus1=BBT439896.1.2.3.0,bus2=BBT592321.1.2.3.0,Phases=3,Linecode=BT803_BT803_4_3_4,Length=0.034670000,Units=km
new line.1037541 bus1=BBT439896.1.2.3.0,bus2=BBT149863620.1.2.3.0,Phases=3,Linecode=BT803_BT803_4_3_4,Length=0.024187000,Units=km
new line.1037555 bus1=BBT149863620.1.2.3.0,bus2=BBT439910.1.2.3.0,Phases=3,Linecode=BT803_BT803_4_3_4,Length=0.033616000,Units=km
new line.1037597 bus1=BBT439910.1.2.3.0,bus2=BBT439917.1.2.3.0,Phases=3,Linecode=BT803_BT803_4_3_4,Length=0.048301000,Units=km
new line.1037618 bus1=BBT592398.1.2.3.0,bus2=BBT149862927.1.2.3.0,Phases=3,Linecode=BT803_BT803_4_3_4,Length=0.027295000,Units=km
new line.1037667 bus1=BBT439938.1.2.3.0,bus2=BBT439924.1.2.3.0,Phases=3,Linecode=BT803_BT803_4_3_4,Length=0.029833000,Units=km
new line.1037688 bus1=BBT439945.1.2.3.0,bus2=BBT592419.1.2.3.0,Phases=3,Linecode=BT803_BT803_4_3_4,Length=0.028601000,Units=km
new line.1037709 bus1=BBT592419.1.2.3.0,bus2=BBT439938.1.2.3.0,Phases=3,Linecode=BT803_BT803_4_3_4,Length=0.029833000,Units=km
new line.1037744 bus1=BBT439959.1.2.3.0,bus2=BBT439504.1.2.3.0,Phases=3,Linecode=BT803_BT803_4_3_4,Length=0.031385000,Units=km
new line.1037779 bus1=BBT439966.1.2.3.0,bus2=BBT439959.1.2.3.0,Phases=3,Linecode=BT803_BT803_4_3_4,Length=0.039446000,Units=km
new line.1037786 bus1=BBT439980.1.2.3.0,bus2=BBT439966.1.2.3.0,Phases=3,Linecode=BT803_BT803_4_3_4,Length=0.034132000,Units=km
new line.1037793 bus1=BBT439966.1.2.3.0,bus2=BBT440001.1.2.3.0,Phases=3,Linecode=BT803_BT803_4_3_4,Length=0.034886000,Units=km
new line.1037807 bus1=BBT3846600.1.2.3.0,bus2=BBT4742628.1.2.3.0,Phases=3,Linecode=BT803_BT803_4_3_4,Length=0.027459000,Units=km
new line.1037835 bus1=BBT439966.1.2.3.0,bus2=BBT151162078.1.2.3.0,Phases=3,Linecode=BT803_BT803_4_3_4,Length=0.026420000,Units=km
new line.1037863 bus1=BBT439980.1.2.3.0,bus2=BBT439987.1.2.3.0,Phases=3,Linecode=BT803_BT803_4_3_4,Length=0.036360000,Units=km
new line.1037884 bus1=BBT439987.1.2.3.0,bus2=BBT439994.1.2.3.0,Phases=3,Linecode=BT803_BT803_4_3_4,Length=0.033287000,Units=km
new line.1037891 bus1=BBT439987.1.2.3.0,bus2=BBT7282249.1.2.3.0,Phases=3,Linecode=BT803_BT803_4_3_4,Length=0.035000000,Units=km
new line.1037912 bus1=BBT439994.1.2.3.0,bus2=BBT5242708.1.2.3.0,Phases=3,Linecode=BT803_BT803_4_3_4,Length=0.037736000,Units=km
new line.1039746 bus1=BBT6534467.1.2.0,bus2=BBT440582.1.2.0,Phases=2,Linecode=BT801_BT801_4_2_3,Length=0.043012000,Units=km
new line.1039753 bus1=BBT6534467.1.2.0,bus2=BBT440603.1.2.0,Phases=2,Linecode=BT801_BT801_4_2_3,Length=0.037014000,Units=km
new line.1039781 bus1=BBT6534467.1.2.3.0,bus2=BBT114456792.1.2.3.0,Phases=3,Linecode=BT810_BT810_4_3_4,Length=0.028845000,Units=km
new line.1039795 bus1=BBT114456792.1.2.3.0,bus2=BBT440610.1.2.3.0,Phases=3,Linecode=BT810_BT810_4_3_4,Length=0.029682000,Units=km
new line.1039823 bus1=BBT440603.1.2.0,bus2=BBT16472164.1.2.0,Phases=2,Linecode=BT106_BT106_7_2_1,Length=0.035805000,Units=km
new line.1039844 bus1=BBT440610.1.2.3.0,bus2=BBT440617.1.2.3.0,Phases=3,Linecode=BT810_BT810_4_3_4,Length=0.029682000,Units=km
new line.1039851 bus1=BBT440610.1.2.0,bus2=BBT440624.1.2.0,Phases=2,Linecode=BT808_BT808_4_2_3,Length=0.038601000,Units=km
new line.1039858 bus1=BBT440610.1.2.0,bus2=BBT7429270.1.2.0,Phases=2,Linecode=BT808_BT808_4_2_3,Length=0.034205000,Units=km
new line.1039900 bus1=BBT3341011.1.2.0,bus2=BBT3341004.1.2.0,Phases=2,Linecode=BT106_BT106_7_2_1,Length=0.042802000,Units=km
new line.1039935 bus1=BBT440624.1.2.0,bus2=BBT16472332.1.2.0,Phases=2,Linecode=BT808_BT808_4_2_3,Length=0.031401000,Units=km
new line.1039956 bus1=BBT16472675.1.2.0,bus2=BBT16483126.1.2.0,Phases=2,Linecode=BT810_BT810_4_2_4,Length=0.031385000,Units=km
new line.1039963 bus1=BBT16472675.1.2.0,bus2=BBT16481313.1.2.0,Phases=2,Linecode=BT808_BT808_4_2_3,Length=0.039115000,Units=km
new line.1039970 bus1=BBT16472675.1.2.0,bus2=BBT441296.1.2.0,Phases=2,Linecode=BT807_BT807_4_2_3,Length=0.034410000,Units=km
new line.1039991 bus1=BBT112450774.1.2.0,bus2=BBT3341011.1.2.0,Phases=2,Linecode=BT107_BT107_7_2_1,Length=0.032757000,Units=km
new line.1039998 bus1=BBT6534418.1.2.0,bus2=BBT3250914.1.2.0,Phases=2,Linecode=BT107_BT107_7_2_1,Length=0.061294000,Units=km
new line.1040026 bus1=BBT440645.1.2.0,bus2=BBT440638.1.2.0,Phases=2,Linecode=BT106_BT106_7_2_1,Length=0.037202000,Units=km
new line.1040061 bus1=BBT440652.1.2.0,bus2=BBT6534418.1.2.0,Phases=2,Linecode=BT807_BT807_4_2_3,Length=0.042202000,Units=km
new line.1040068 bus1=BBT440575.1.2.0,bus2=BBT440652.1.2.0,Phases=2,Linecode=BT513_BT513_7_2_1,Length=0.000500000,Units=km
new line.1040075 bus1=BBT440652.1.2.0,bus2=BBT440673.1.2.0,Phases=2,Linecode=BT807_BT807_4_2_3,Length=0.038289000,Units=km
new line.1040096 bus1=BBT440680.1.2.3.0,bus2=BBT75509037.1.2.3.0,Phases=3,Linecode=BT810_BT810_4_3_4,Length=0.040000000,Units=km
new line.1040103 bus1=BBT75509037.1.2.3.0,bus2=BBT15447791.1.2.3.0,Phases=3,Linecode=BT810_BT810_4_3_4,Length=0.037802000,Units=km
new line.1040110 bus1=BBT16486332.1.2.3.0,bus2=BBT75511494.1.2.3.0,Phases=3,Linecode=BT810_BT810_4_3_4,Length=0.038276000,Units=km
new line.1040166 bus1=BBT440673.1.2.0,bus2=BBT440645.1.2.0,Phases=2,Linecode=BT107_BT107_7_2_1,Length=0.056939000,Units=km
new line.1040173 bus1=BBT440673.1.2.0,bus2=BBT441359.1.2.0,Phases=2,Linecode=BT107_BT107_7_2_1,Length=0.062968000,Units=km
new line.1040180 bus1=BBT440673.1.2.0,bus2=BBT440694.1.2.0,Phases=2,Linecode=BT808_BT808_4_2_3,Length=0.049407000,Units=km
new line.1040222 bus1=BBT75508988.1.2.3.0,bus2=BBT440680.1.2.3.0,Phases=3,Linecode=BT810_BT810_4_3_4,Length=0.039205000,Units=km
new line.1040229 bus1=BBT75508890.1.2.3.0,bus2=BBT75508988.1.2.3.0,Phases=3,Linecode=BT810_BT810_4_3_4,Length=0.039446000,Units=km
new line.1040236 bus1=BBT75508988.1.2.3.0,bus2=BBT441387.1.2.3.0,Phases=3,Linecode=BT810_BT810_4_3_4,Length=0.030000000,Units=km
new line.1040278 bus1=BBT440694.1.2.0,bus2=BBT440701.1.2.0,Phases=2,Linecode=BT808_BT808_4_2_3,Length=0.038833000,Units=km
new line.1061488 bus1=BBT447778.1.2.3.0,bus2=BBT447771.1.2.3.0,Phases=3,Linecode=BT809_BT809_4_3_4,Length=0.028636000,Units=km
new line.1061495 bus1=BBT447785.1.2.3.0,bus2=BBT447778.1.2.3.0,Phases=3,Linecode=BT803_BT803_4_3_4,Length=0.027313000,Units=km
new line.1061516 bus1=BBT447792.1.2.3.0,bus2=BBT447785.1.2.3.0,Phases=3,Linecode=BT803_BT803_4_3_4,Length=0.029967000,Units=km
new line.1061544 bus1=BBT447799.1.2.3.0,bus2=BBT447792.1.2.3.0,Phases=3,Linecode=BT803_BT803_4_3_4,Length=0.026401000,Units=km
new line.1061551 bus1=BBT447750.1.2.3.0,bus2=BBT447799.1.2.3.0,Phases=3,Linecode=BT518_BT518_7_3_1,Length=0.000500000,Units=km
new line.1061558 bus1=BBT447799.1.2.3.0,bus2=BBT447806.1.2.3.0,Phases=3,Linecode=BT803_BT803_4_3_4,Length=0.032696000,Units=km
new line.1061586 bus1=BBT447806.1.2.3.0,bus2=BBT447813.1.2.3.0,Phases=3,Linecode=BT803_BT803_4_3_4,Length=0.027731000,Units=km
new line.1061607 bus1=BBT447813.1.2.3.0,bus2=BBT447820.1.2.3.0,Phases=3,Linecode=BT809_BT809_4_3_4,Length=0.030463000,Units=km
new line.1040299 bus1=BBT440701.1.2.0,bus2=BBT440708.1.2.0,Phases=2,Linecode=BT808_BT808_4_2_3,Length=0.035805000,Units=km
new line.1040327 bus1=BBT2802291.1.2.3.0,bus2=BBT2802669.1.2.3.0,Phases=3,Linecode=BT803_BT803_4_3_4,Length=0.030000000,Units=km
new line.1040334 bus1=BBT2802291.1.2.3.0,bus2=BBT2802480.1.2.3.0,Phases=3,Linecode=BT810_BT810_4_3_4,Length=0.042544000,Units=km
new line.1040341 bus1=BBT2802291.1.2.3.0,bus2=BBT2802494.1.2.3.0,Phases=3,Linecode=BT810_BT810_4_3_4,Length=0.030480000,Units=km
new line.1040775 bus1=BBT440862.1.2.3.0,bus2=BBT440848.1.2.3.0,Phases=3,Linecode=BT809_BT809_4_3_4,Length=0.030414000,Units=km
new line.1040782 bus1=BBT440876.1.2.3.0,bus2=BBT440862.1.2.3.0,Phases=3,Linecode=BT809_BT809_4_3_4,Length=0.032558000,Units=km
new line.1040817 bus1=BBT440883.1.2.3.0,bus2=BBT439546.1.2.3.0,Phases=3,Linecode=BT810_BT810_4_3_4,Length=0.035847000,Units=km
new line.1040845 bus1=BBT440890.1.2.3.0,bus2=BBT440876.1.2.3.0,Phases=3,Linecode=BT809_BT809_4_3_4,Length=0.035469000,Units=km
new line.1040880 bus1=BBT440897.1.2.3.0,bus2=BBT440883.1.2.3.0,Phases=3,Linecode=BT810_BT810_4_3_4,Length=0.034986000,Units=km
new line.1040901 bus1=BBT440904.1.2.3.0,bus2=BBT440890.1.2.3.0,Phases=3,Linecode=BT809_BT809_4_3_4,Length=0.037643000,Units=km
new line.1040936 bus1=BBT440911.1.2.3.0,bus2=BBT440897.1.2.3.0,Phases=3,Linecode=BT810_BT810_4_3_4,Length=0.034132000,Units=km
new line.1040964 bus1=BBT440918.1.2.3.0,bus2=BBT440911.1.2.3.0,Phases=3,Linecode=BT810_BT810_4_3_4,Length=0.036360000,Units=km
new line.1041006 bus1=BBT440925.1.2.3.0,bus2=BBT440904.1.2.3.0,Phases=3,Linecode=BT108_BT107_7_3_1,Length=0.051225000,Units=km
new line.1041013 bus1=BBT440841.1.2.3.0,bus2=BBT440925.1.2.3.0,Phases=3,Linecode=BT518_BT518_7_3_1,Length=0.000500000,Units=km
new line.1041020 bus1=BBT440925.1.2.3.0,bus2=BBT440932.1.2.3.0,Phases=3,Linecode=BT108_BT107_7_3_1,Length=0.012807000,Units=km
new line.1041055 bus1=BBT440932.1.2.3.0,bus2=BBT440918.1.2.3.0,Phases=3,Linecode=BT810_BT810_4_3_4,Length=0.035847000,Units=km
new line.1041062 bus1=BBT440932.1.2.3.0,bus2=BBT441954.1.2.3.0,Phases=3,Linecode=BT108_BT107_7_3_1,Length=0.031891000,Units=km
new line.1041083 bus1=BBT441954.1.2.3.0,bus2=BBT3493926.1.2.3.0,Phases=3,Linecode=BT108_BT107_7_3_1,Length=0.030480000,Units=km
new line.1042189 bus1=BBT441275.1.2.0,bus2=BBT16472675.1.2.0,Phases=2,Linecode=BT807_BT807_4_2_3,Length=0.038601000,Units=km
new line.1042238 bus1=BBT16472577.1.3.0,bus2=BBT441289.1.3.0,Phases=2,Linecode=BT808_BT808_4_2_3,Length=0.038079000,Units=km
new line.1042245 bus1=BBT16472577.1.3.0,bus2=BBT441317.1.3.0,Phases=2,Linecode=BT808_BT808_4_2_3,Length=0.039115000,Units=km
new line.1042259 bus1=BBT441317.1.3.0,bus2=BBT441338.1.3.0,Phases=2,Linecode=BT808_BT808_4_2_3,Length=0.039661000,Units=km
new line.1042273 bus1=BBT441324.1.3.0,bus2=BBT16472577.1.3.0,Phases=2,Linecode=BT808_BT808_4_2_3,Length=0.036715000,Units=km
new line.1042343 bus1=BBT441352.1.3.0,bus2=BBT441324.1.3.0,Phases=2,Linecode=BT808_BT808_4_2_3,Length=0.035511000,Units=km
new line.1042350 bus1=BBT441352.1.2.3.0,bus2=BBT16486332.1.2.3.0,Phases=3,Linecode=BT810_BT810_4_3_4,Length=0.046141000,Units=km
new line.1042357 bus1=BBT441352.1.2.3.0,bus2=BBT75508568.1.2.3.0,Phases=3,Linecode=BT810_BT810_4_3_4,Length=0.038276000,Units=km
new line.1042378 bus1=BBT441366.1.2.3.0,bus2=BBT441352.1.2.3.0,Phases=3,Linecode=BT803_BT803_4_3_4,Length=0.037216000,Units=km
new line.1042385 bus1=BBT441268.1.2.3.0,bus2=BBT441366.1.2.3.0,Phases=3,Linecode=BT513_BT513_7_3_1,Length=0.000500000,Units=km
new line.1042392 bus1=BBT441366.1.2.3.0,bus2=BBT75508897.1.2.3.0,Phases=3,Linecode=BT803_BT803_4_3_4,Length=0.045486000,Units=km
new line.1042441 bus1=BBT441387.1.2.3.0,bus2=BBT441394.1.2.3.0,Phases=3,Linecode=BT810_BT810_4_3_4,Length=0.029411000,Units=km
new line.1042504 bus1=BBT75508897.1.2.3.0,bus2=BBT75506293.1.2.3.0,Phases=3,Linecode=BT810_BT810_4_3_4,Length=0.033616000,Units=km
new line.1042511 bus1=BBT75508897.1.2.3.0,bus2=BBT75505635.1.2.3.0,Phases=3,Linecode=BT810_BT810_4_3_4,Length=0.029206000,Units=km
new line.1042560 bus1=BBT441422.1.2.3.0,bus2=BBT75506090.1.2.3.0,Phases=3,Linecode=BT810_BT810_4_3_4,Length=0.024187000,Units=km
new line.1042567 bus1=BBT441422.1.2.3.0,bus2=BBT75506139.1.2.3.0,Phases=3,Linecode=BT810_BT810_4_3_4,Length=0.036360000,Units=km
new line.1064218 bus1=BBT448660.1.2.3.0,bus2=BBT448625.1.2.3.0,Phases=3,Linecode=BT107_BT107_7_3_1,Length=0.036715000,Units=km
new line.1064239 bus1=BBT448667.1.2.3.0,bus2=BBT448653.1.2.3.0,Phases=3,Linecode=BT803_BT803_4_3_4,Length=0.031906000,Units=km
new line.1064246 bus1=BBT448527.1.2.3.0,bus2=BBT448667.1.2.3.0,Phases=3,Linecode=BT513_BT513_7_3_1,Length=0.000500000,Units=km
new line.1064253 bus1=BBT448667.1.2.3.0,bus2=BBT448681.1.2.3.0,Phases=3,Linecode=BT803_BT803_4_3_4,Length=0.026926000,Units=km
new line.1064274 bus1=BBT448681.1.2.3.0,bus2=BBT448695.1.2.3.0,Phases=3,Linecode=BT803_BT803_4_3_4,Length=0.023854000,Units=km
new line.1064295 bus1=BBT448688.1.2.3.0,bus2=BBT448660.1.2.3.0,Phases=3,Linecode=BT803_BT803_4_3_4,Length=0.034000000,Units=km
new line.10643123 bus1=BBT2817852.1.2.0,bus2=BBT2817859.1.2.0,Phases=2,Linecode=BT518_BT518_7_2_1,Length=0.000501000,Units=km
new line.1064337 bus1=BBT448695.1.2.3.0,bus2=BBT448688.1.2.3.0,Phases=3,Linecode=BT803_BT803_4_3_4,Length=0.005831000,Units=km
new line.1064344 bus1=BBT448695.1.2.3.0,bus2=BBT448702.1.2.3.0,Phases=3,Linecode=BT803_BT803_4_3_4,Length=0.005831000,Units=km
new line.10643466 bus1=BBT2817866.1.2.0,bus2=BBT2817873.1.2.0,Phases=2,Linecode=BT518_BT518_7_2_1,Length=0.000501000,Units=km
new line.10643508 bus1=BBT2817908.1.2.0,bus2=BBT2817915.1.2.0,Phases=2,Linecode=BT518_BT518_7_2_1,Length=0.000501000,Units=km
new line.1064351 bus1=BBT448695.1.2.3.0,bus2=BBT448716.1.2.3.0,Phases=3,Linecode=BT803_BT803_4_3_4,Length=0.021955000,Units=km
new line.1064365 bus1=BBT448702.1.2.3.0,bus2=BBT448709.1.2.3.0,Phases=3,Linecode=BT803_BT803_4_3_4,Length=0.029682000,Units=km
new line.10643676 bus1=BBT2817880.1.2.0,bus2=BBT2817887.1.2.0,Phases=2,Linecode=BT518_BT518_7_2_1,Length=0.000501000,Units=km
new line.10643746 bus1=BBT2817894.1.2.0,bus2=BBT2817901.1.2.0,Phases=2,Linecode=BT518_BT518_7_2_1,Length=0.000501000,Units=km
new line.1064386 bus1=BBT448709.1.2.3.0,bus2=BBT448723.1.2.3.0,Phases=3,Linecode=BT803_BT803_4_3_4,Length=0.029682000,Units=km
new line.1064421 bus1=BBT448737.1.2.3.0,bus2=BBT157636363.1.2.3.0,Phases=3,Linecode=BT810_BT810_4_3_4,Length=0.014000000,Units=km
new line.1064442 bus1=BBT448744.1.2.3.0,bus2=BBT448737.1.2.3.0,Phases=3,Linecode=BT810_BT810_4_3_4,Length=0.025000000,Units=km
new line.1064470 bus1=BBT448751.1.2.3.0,bus2=BBT448744.1.2.3.0,Phases=3,Linecode=BT803_BT803_4_3_4,Length=0.040050000,Units=km
new line.1064519 bus1=BBT448758.1.2.3.0,bus2=BBT448751.1.2.3.0,Phases=3,Linecode=BT803_BT803_4_3_4,Length=0.030000000,Units=km
new line.1064526 bus1=BBT448730.1.2.3.0,bus2=BBT448758.1.2.3.0,Phases=3,Linecode=BT518_BT518_7_3_1,Length=0.000500000,Units=km
new line.1064533 bus1=BBT448758.1.2.3.0,bus2=BBT448765.1.2.3.0,Phases=3,Linecode=BT803_BT803_4_3_4,Length=0.036125000,Units=km
new line.1064547 bus1=BBT448765.1.2.3.0,bus2=BBT448772.1.2.3.0,Phases=3,Linecode=BT803_BT803_4_3_4,Length=0.034000000,Units=km
new line.1064575 bus1=BBT448772.1.2.3.0,bus2=BBT448779.1.2.3.0,Phases=3,Linecode=BT810_BT810_4_3_4,Length=0.033061000,Units=km
new line.1064582 bus1=BBT448779.1.2.3.0,bus2=BBT448786.1.2.3.0,Phases=3,Linecode=BT810_BT810_4_3_4,Length=0.035000000,Units=km
new line.1036386 bus1=BBT439504.1.2.3.0,bus2=BBT149863296.1.2.3.0,Phases=3,Linecode=BT810_BT810_4_3_4,Length=0.032249000,Units=km
new line.1036428 bus1=BBT149863180.1.2.3.0,bus2=BBT439518.1.2.3.0,Phases=3,Linecode=BT810_BT810_4_3_4,Length=0.034000000,Units=km
new line.1036435 bus1=BBT149863180.1.2.3.0,bus2=BBT149863255.1.2.3.0,Phases=3,Linecode=BT810_BT810_4_3_4,Length=0.020249000,Units=km
new line.1036442 bus1=BBT439553.1.2.3.0,bus2=BBT149863180.1.2.3.0,Phases=3,Linecode=BT810_BT810_4_3_4,Length=0.025554000,Units=km
new line.1036477 bus1=BBT149863255.1.2.3.0,bus2=BBT439539.1.2.3.0,Phases=3,Linecode=BT810_BT810_4_3_4,Length=0.030017000,Units=km
new line.1036512 bus1=BBT439539.1.2.3.0,bus2=BBT151166781.1.2.3.0,Phases=3,Linecode=BT810_BT810_4_3_4,Length=0.026420000,Units=km
new line.1036540 bus1=BBT439546.1.2.3.0,bus2=BBT440855.1.2.3.0,Phases=3,Linecode=BT810_BT810_4_3_4,Length=0.037736000,Units=km
new line.1036547 bus1=BBT439560.1.2.3.0,bus2=BBT439553.1.2.3.0,Phases=3,Linecode=BT810_BT810_4_3_4,Length=0.023854000,Units=km
new line.1036582 bus1=BBT592398.1.2.3.0,bus2=BBT439560.1.2.3.0,Phases=3,Linecode=BT810_BT810_4_3_4,Length=0.030000000,Units=km
new line.1036603 bus1=BBT439945.1.2.3.0,bus2=BBT592398.1.2.3.0,Phases=3,Linecode=BT803_BT803_4_3_4,Length=0.027459000,Units=km
new line.10588152 bus1=BBT2801080.1.2.3.0,bus2=BBT2801087.1.2.3.0,Phases=3,Linecode=BT810_BT810_4_3_4,Length=0.032803000,Units=km
new line.1058877 bus1=BBT446959.1.2.3.0,bus2=BBT446952.1.2.3.0,Phases=3,Linecode=BT108_BT107_7_3_1,Length=0.027203000,Units=km
new line.1058905 bus1=BBT446966.1.2.3.0,bus2=BBT446959.1.2.3.0,Phases=3,Linecode=BT108_BT107_7_3_1,Length=0.029411000,Units=km
new line.1058926 bus1=BBT446973.1.2.3.0,bus2=BBT446966.1.2.3.0,Phases=3,Linecode=BT108_BT107_7_3_1,Length=0.029411000,Units=km
new line.1058947 bus1=BBT446987.1.2.3.0,bus2=BBT446973.1.2.3.0,Phases=3,Linecode=BT108_BT107_7_3_1,Length=0.028601000,Units=km
new line.1058961 bus1=BBT446994.1.2.3.0,bus2=BBT446980.1.2.3.0,Phases=3,Linecode=BT106_BT106_7_3_1,Length=0.031623000,Units=km
new line.1058968 bus1=BBT446994.1.2.3.0,bus2=BBT446987.1.2.3.0,Phases=3,Linecode=BT108_BT107_7_3_1,Length=0.031623000,Units=km
new line.1058989 bus1=BBT447001.1.2.3.0,bus2=BBT446994.1.2.3.0,Phases=3,Linecode=BT108_BT107_7_3_1,Length=0.027459000,Units=km
new line.1058996 bus1=BBT446945.1.2.3.0,bus2=BBT447001.1.2.3.0,Phases=3,Linecode=BT518_BT518_7_3_1,Length=0.000500000,Units=km
new line.1059003 bus1=BBT447001.1.2.3.0,bus2=BBT447008.1.2.3.0,Phases=3,Linecode=BT108_BT107_7_3_1,Length=0.038013000,Units=km
new line.1059024 bus1=BBT447008.1.2.3.0,bus2=BBT447015.1.2.3.0,Phases=3,Linecode=BT108_BT107_7_3_1,Length=0.028302000,Units=km
new line.1059059 bus1=BBT447015.1.2.3.0,bus2=BBT447029.1.2.3.0,Phases=3,Linecode=BT108_BT107_7_3_1,Length=0.030233000,Units=km
new line.1059087 bus1=BBT447029.1.2.3.0,bus2=BBT447036.1.2.3.0,Phases=3,Linecode=BT108_BT107_7_3_1,Length=0.028018000,Units=km
new line.1059101 bus1=BBT447036.1.2.3.0,bus2=BBT447022.1.2.3.0,Phases=3,Linecode=BT106_BT106_7_3_1,Length=0.034713000,Units=km
new line.1059108 bus1=BBT447036.1.2.3.0,bus2=BBT447043.1.2.3.0,Phases=3,Linecode=BT108_BT107_7_3_1,Length=0.029411000,Units=km
new line.10595789 bus1=BBT2802284.1.2.3.0,bus2=BBT2802291.1.2.3.0,Phases=3,Linecode=BT803_BT803_4_3_4,Length=0.036401000,Units=km
new line.10595796 bus1=BBT2802277.1.2.3.0,bus2=BBT2802284.1.2.3.0,Phases=3,Linecode=BT513_BT513_7_3_1,Length=0.000500000,Units=km
new line.10595803 bus1=BBT2802284.1.2.3.0,bus2=BBT2802445.1.2.3.0,Phases=3,Linecode=BT803_BT803_4_3_4,Length=0.029833000,Units=km
new line.10597490 bus1=BBT2802445.1.2.3.0,bus2=BBT2802452.1.2.3.0,Phases=3,Linecode=BT803_BT803_4_3_4,Length=0.034206000,Units=km
new line.10597497 bus1=BBT2802445.1.2.3.0,bus2=BBT2802459.1.2.3.0,Phases=3,Linecode=BT810_BT810_4_3_4,Length=0.041401000,Units=km
new line.10597504 bus1=BBT2802445.1.2.3.0,bus2=BBT2802515.1.2.3.0,Phases=3,Linecode=BT810_BT810_4_3_4,Length=0.031891000,Units=km
new line.10597539 bus1=BBT2802599.1.2.3.0,bus2=BBT2802620.1.2.3.0,Phases=3,Linecode=BT803_BT803_4_3_4,Length=0.034206000,Units=km
new line.10597546 bus1=BBT2802599.1.2.3.0,bus2=BBT2802795.1.2.3.0,Phases=3,Linecode=BT810_BT810_4_3_4,Length=0.040000000,Units=km
new line.10597553 bus1=BBT2802599.1.2.3.0,bus2=BBT2802816.1.2.3.0,Phases=3,Linecode=BT803_BT803_4_3_4,Length=0.029833000,Units=km
new line.10597560 bus1=BBT2802438.1.2.3.0,bus2=BBT2802599.1.2.3.0,Phases=3,Linecode=BT803_BT803_4_3_4,Length=0.042638000,Units=km
new line.10597567 bus1=BBT2802431.1.2.3.0,bus2=BBT2802438.1.2.3.0,Phases=3,Linecode=BT518_BT518_7_3_1,Length=0.000500000,Units=km
new line.10597574 bus1=BBT2802438.1.2.3.0,bus2=BBT2802767.1.2.3.0,Phases=3,Linecode=BT803_BT803_4_3_4,Length=0.044204000,Units=km
new line.10597595 bus1=BBT2802767.1.2.3.0,bus2=BBT2802774.1.2.3.0,Phases=3,Linecode=BT803_BT803_4_3_4,Length=0.043186000,Units=km
new line.10597644 bus1=BBT2802774.1.2.3.0,bus2=BBT2802851.1.2.3.0,Phases=3,Linecode=BT810_BT810_4_3_4,Length=0.035440000,Units=km
new line.10597651 bus1=BBT2802774.1.2.3.0,bus2=BBT2802879.1.2.3.0,Phases=3,Linecode=BT810_BT810_4_3_4,Length=0.032280000,Units=km
new line.10597686 bus1=BBT2802858.1.2.3.0,bus2=BBT153394245.1.2.3.0,Phases=3,Linecode=BT810_BT810_4_3_4,Length=0.035114000,Units=km
new line.10597707 bus1=BBT2802858.1.2.3.0,bus2=BBT2802865.1.2.3.0,Phases=3,Linecode=BT810_BT810_4_3_4,Length=0.039699000,Units=km
new line.10597728 bus1=BBT2802865.1.2.3.0,bus2=BBT2802844.1.2.3.0,Phases=3,Linecode=BT810_BT810_4_3_4,Length=0.045454000,Units=km
new line.10597763 bus1=BBT2802844.1.2.3.0,bus2=BBT153393960.1.2.3.0,Phases=3,Linecode=BT810_BT810_4_3_4,Length=0.041231000,Units=km
new line.10597777 bus1=BBT2802823.1.2.3.0,bus2=BBT2802837.1.2.3.0,Phases=3,Linecode=BT810_BT810_4_3_4,Length=0.042802000,Units=km
new line.10597784 bus1=BBT2802823.1.2.3.0,bus2=BBT2802830.1.2.3.0,Phases=3,Linecode=BT810_BT810_4_3_4,Length=0.041231000,Units=km
new line.10597791 bus1=BBT2802823.1.2.3.0,bus2=BBT3846432.1.2.3.0,Phases=3,Linecode=BT810_BT810_4_3_4,Length=0.041485000,Units=km
new line.10597805 bus1=BBT2802879.1.2.3.0,bus2=BBT2802900.1.2.3.0,Phases=3,Linecode=BT810_BT810_4_3_4,Length=0.037363000,Units=km
new line.10597826 bus1=BBT2802900.1.2.3.0,bus2=BBT2802907.1.2.3.0,Phases=3,Linecode=BT810_BT810_4_3_4,Length=0.036688000,Units=km
new line.10597854 bus1=BBT2802907.1.2.3.0,bus2=BBT2802914.1.2.3.0,Phases=3,Linecode=BT810_BT810_4_3_4,Length=0.038898000,Units=km
new line.10597896 bus1=BBT2802809.1.2.3.0,bus2=BBT2802921.1.2.3.0,Phases=3,Linecode=BT810_BT810_4_3_4,Length=0.045804000,Units=km
new line.10597903 bus1=BBT2802809.1.2.3.0,bus2=BBT2802942.1.2.3.0,Phases=3,Linecode=BT810_BT810_4_3_4,Length=0.035000000,Units=km
new line.10597924 bus1=BBT2802802.1.2.3.0,bus2=BBT2802809.1.2.3.0,Phases=3,Linecode=BT810_BT810_4_3_4,Length=0.041231000,Units=km
new line.10597952 bus1=BBT2802795.1.2.3.0,bus2=BBT2802802.1.2.3.0,Phases=3,Linecode=BT810_BT810_4_3_4,Length=0.042802000,Units=km
new line.10597980 bus1=BBT2802816.1.2.3.0,bus2=BBT2802823.1.2.3.0,Phases=3,Linecode=BT810_BT810_4_3_4,Length=0.028601000,Units=km
new line.10598001 bus1=BBT2802942.1.2.3.0,bus2=BBT2802949.1.2.3.0,Phases=3,Linecode=BT810_BT810_4_3_4,Length=0.034828000,Units=km
new line.10598022 bus1=BBT2802949.1.2.3.0,bus2=BBT3846593.1.2.3.0,Phases=3,Linecode=BT810_BT810_4_3_4,Length=0.040460000,Units=km
new line.10598050 bus1=BBT2802459.1.2.3.0,bus2=BBT2802466.1.2.3.0,Phases=3,Linecode=BT810_BT810_4_3_4,Length=0.042012000,Units=km
new line.1053361 bus1=BBT445139.1.2.3.0,bus2=BBT445132.1.2.3.0,Phases=3,Linecode=BT107_BT106_7_3_1,Length=0.036125000,Units=km
new line.1053382 bus1=BBT445146.1.2.3.0,bus2=BBT445139.1.2.3.0,Phases=3,Linecode=BT107_BT106_7_3_1,Length=0.023022000,Units=km
new line.1053403 bus1=BBT445153.1.2.3.0,bus2=BBT445146.1.2.3.0,Phases=3,Linecode=BT107_BT106_7_3_1,Length=0.036056000,Units=km
new line.1053452 bus1=BBT445167.1.2.3.0,bus2=BBT445160.1.2.3.0,Phases=3,Linecode=BT107_BT106_7_3_1,Length=0.029411000,Units=km
new line.1053459 bus1=BBT445174.1.2.3.0,bus2=BBT445153.1.2.3.0,Phases=3,Linecode=BT107_BT106_7_3_1,Length=0.035805000,Units=km
new line.1053466 bus1=BBT445174.1.2.3.0,bus2=BBT445167.1.2.3.0,Phases=3,Linecode=BT107_BT106_7_3_1,Length=0.025495000,Units=km
new line.1053473 bus1=BBT445174.1.2.3.0,bus2=BBT445188.1.2.3.0,Phases=3,Linecode=BT107_BT106_7_3_1,Length=0.024413000,Units=km
new line.1053501 bus1=BBT445181.1.2.3.0,bus2=BBT445174.1.2.3.0,Phases=3,Linecode=BT108_BT107_7_3_1,Length=0.034670000,Units=km
new line.1053508 bus1=BBT445125.1.2.3.0,bus2=BBT445181.1.2.3.0,Phases=3,Linecode=BT518_BT518_7_3_1,Length=0.000500000,Units=km
new line.1053515 bus1=BBT445181.1.2.3.0,bus2=BBT445195.1.2.3.0,Phases=3,Linecode=BT108_BT107_7_3_1,Length=0.033838000,Units=km
new line.1053550 bus1=BBT445188.1.2.3.0,bus2=BBT445202.1.2.3.0,Phases=3,Linecode=BT107_BT106_7_3_1,Length=0.028018000,Units=km
new line.1053564 bus1=BBT445195.1.2.3.0,bus2=BBT445209.1.2.3.0,Phases=3,Linecode=BT108_BT107_7_3_1,Length=0.031623000,Units=km
new line.1053599 bus1=BBT445209.1.2.3.0,bus2=BBT445216.1.2.3.0,Phases=3,Linecode=BT107_BT106_7_3_1,Length=0.033422000,Units=km
new line.1053634 bus1=BBT445237.1.2.3.0,bus2=BBT442451.1.2.3.0,Phases=3,Linecode=BT810_BT810_4_3_4,Length=0.019417000,Units=km
new line.1053641 bus1=BBT445237.1.2.3.0,bus2=BBT6025007.1.2.3.0,Phases=3,Linecode=BT810_BT810_4_3_4,Length=0.045277000,Units=km
new line.1053662 bus1=BBT445244.1.2.3.0,bus2=BBT445237.1.2.3.0,Phases=3,Linecode=BT810_BT810_4_3_4,Length=0.029732000,Units=km
new line.1053683 bus1=BBT445251.1.2.3.0,bus2=BBT445244.1.2.3.0,Phases=3,Linecode=BT810_BT810_4_3_4,Length=0.034656000,Units=km
new line.1053725 bus1=BBT445258.1.2.3.0,bus2=BBT3846299.1.2.3.0,Phases=3,Linecode=BT810_BT810_4_3_4,Length=0.041618000,Units=km
new line.1053739 bus1=BBT445265.1.2.3.0,bus2=BBT445258.1.2.3.0,Phases=3,Linecode=BT107_BT106_7_3_1,Length=0.025000000,Units=km
new line.1053746 bus1=BBT445272.1.2.3.0,bus2=BBT445251.1.2.3.0,Phases=3,Linecode=BT803_BT803_4_3_4,Length=0.024208000,Units=km
new line.1053774 bus1=BBT445279.1.2.3.0,bus2=BBT445265.1.2.3.0,Phases=3,Linecode=BT107_BT106_7_3_1,Length=0.040707000,Units=km
new line.1053781 bus1=BBT445286.1.2.3.0,bus2=BBT445272.1.2.3.0,Phases=3,Linecode=BT803_BT803_4_3_4,Length=0.025613000,Units=km
new line.1053788 bus1=BBT445223.1.2.3.0,bus2=BBT445286.1.2.3.0,Phases=3,Linecode=BT514_BT514_7_3_1,Length=0.000500000,Units=km
new line.1053795 bus1=BBT445286.1.2.3.0,bus2=BBT445307.1.2.3.0,Phases=3,Linecode=BT803_BT803_4_3_4,Length=0.040000000,Units=km
new line.1053809 bus1=BBT445293.1.2.3.0,bus2=BBT445300.1.2.3.0,Phases=3,Linecode=BT107_BT106_7_3_1,Length=0.021634000,Units=km
new line.1053823 bus1=BBT445300.1.2.3.0,bus2=BBT445279.1.2.3.0,Phases=3,Linecode=BT107_BT106_7_3_1,Length=0.015812000,Units=km
new line.1053844 bus1=BBT445307.1.2.3.0,bus2=BBT445321.1.2.3.0,Phases=3,Linecode=BT803_BT803_4_3_4,Length=0.047382000,Units=km
new line.1053879 bus1=BBT445314.1.2.3.0,bus2=BBT445293.1.2.3.0,Phases=3,Linecode=BT108_BT107_7_3_1,Length=0.024413000,Units=km
new line.1053928 bus1=BBT445314.1.2.3.0,bus2=BBT159572975.1.2.3.0,Phases=3,Linecode=BT108_BT107_7_3_1,Length=0.021955000,Units=km
new line.1053935 bus1=BBT159572975.1.2.3.0,bus2=BBT445328.1.2.3.0,Phases=3,Linecode=BT107_BT106_7_3_1,Length=0.024840000,Units=km
new line.1053942 bus1=BBT445321.1.2.3.0,bus2=BBT3355872.1.2.3.0,Phases=3,Linecode=BT108_BT107_7_3_1,Length=0.035511000,Units=km
new line.1053977 bus1=BBT445328.1.2.3.0,bus2=BBT445356.1.2.3.0,Phases=3,Linecode=BT107_BT106_7_3_1,Length=0.028426000,Units=km
new line.1053991 bus1=BBT3355872.1.2.3.0,bus2=BBT445349.1.2.3.0,Phases=3,Linecode=BT108_BT107_7_3_1,Length=0.037122000,Units=km
new line.1054040 bus1=BBT445356.1.2.3.0,bus2=BBT445370.1.2.3.0,Phases=3,Linecode=BT107_BT106_7_3_1,Length=0.020616000,Units=km
new line.1054047 bus1=BBT445356.1.2.3.0,bus2=BBT3846306.1.2.3.0,Phases=3,Linecode=BT810_BT810_4_3_4,Length=0.043012000,Units=km
new line.1054061 bus1=BBT445363.1.2.3.0,bus2=BBT445342.1.2.3.0,Phases=3,Linecode=BT107_BT106_7_3_1,Length=0.032203000,Units=km
new line.1054089 bus1=BBT445370.1.2.3.0,bus2=BBT445363.1.2.3.0,Phases=3,Linecode=BT107_BT106_7_3_1,Length=0.015812000,Units=km
new line.1054096 bus1=BBT445370.1.2.3.0,bus2=BBT445384.1.2.3.0,Phases=3,Linecode=BT107_BT106_7_3_1,Length=0.012042000,Units=km
new line.1054103 bus1=BBT445370.1.2.3.0,bus2=BBT445391.1.2.3.0,Phases=3,Linecode=BT107_BT106_7_3_1,Length=0.022204000,Units=km
new line.1054110 bus1=BBT3355872.1.2.3.0,bus2=BBT159572978.1.2.3.0,Phases=3,Linecode=BT107_BT106_7_3_1,Length=0.033287000,Units=km
new line.1054131 bus1=BBT445384.1.2.3.0,bus2=BBT445979.1.2.3.0,Phases=3,Linecode=BT805_BT805_4_3_4,Length=0.031891000,Units=km
new line.1054159 bus1=BBT445391.1.2.3.0,bus2=BBT445405.1.2.3.0,Phases=3,Linecode=BT810_BT810_4_3_4,Length=0.034670000,Units=km
new line.1054201 bus1=BBT445405.1.2.3.0,bus2=BBT445377.1.2.3.0,Phases=3,Linecode=BT107_BT106_7_3_1,Length=0.038833000,Units=km
new line.1054208 bus1=BBT445405.1.2.3.0,bus2=BBT445412.1.2.3.0,Phases=3,Linecode=BT810_BT810_4_3_4,Length=0.023854000,Units=km
new line.1054593 bus1=BBT445566.1.2.3.0,bus2=BBT444971.1.2.3.0,Phases=3,Linecode=BT803_BT803_4_3_4,Length=0.036675000,Units=km
new line.1054628 bus1=BBT445573.1.2.3.0,bus2=BBT445566.1.2.3.0,Phases=3,Linecode=BT803_BT803_4_3_4,Length=0.035356000,Units=km
new line.1054635 bus1=BBT445587.1.2.3.0,bus2=BBT72355446.1.2.3.0,Phases=3,Linecode=BT803_BT803_4_3_4,Length=0.038079000,Units=km
new line.1054649 bus1=BBT445580.1.2.3.0,bus2=BBT445559.1.2.3.0,Phases=3,Linecode=BT809_BT809_4_3_4,Length=0.031765000,Units=km
new line.1054684 bus1=BBT445608.1.2.3.0,bus2=BBT445587.1.2.3.0,Phases=3,Linecode=BT803_BT803_4_3_4,Length=0.033106000,Units=km
new line.1054712 bus1=BBT445545.1.2.3.0,bus2=BBT445594.1.2.3.0,Phases=3,Linecode=BT513_BT513_7_3_1,Length=0.000500000,Units=km
new line.1054719 bus1=BBT445594.1.2.3.0,bus2=BBT445615.1.2.3.0,Phases=3,Linecode=BT803_BT803_4_3_4,Length=0.020592000,Units=km
new line.1054726 bus1=BBT445594.1.2.3.0,bus2=BBT4750965.1.2.3.0,Phases=3,Linecode=BT803_BT803_4_3_4,Length=0.023324000,Units=km
new line.1054754 bus1=BBT445601.1.2.3.0,bus2=BBT445580.1.2.3.0,Phases=3,Linecode=BT809_BT809_4_3_4,Length=0.022361000,Units=km
new line.1054775 bus1=BBT445608.1.2.3.0,bus2=BBT445629.1.2.3.0,Phases=3,Linecode=BT803_BT803_4_3_4,Length=0.029967000,Units=km
new line.1054789 bus1=BBT445615.1.2.3.0,bus2=BBT445601.1.2.3.0,Phases=3,Linecode=BT810_BT810_4_3_4,Length=0.006709000,Units=km
new line.1054796 bus1=BBT445615.1.2.3.0,bus2=BBT445622.1.2.3.0,Phases=3,Linecode=BT108_BT107_7_3_1,Length=0.005657000,Units=km
new line.1054803 bus1=BBT445615.1.2.3.0,bus2=BBT445643.1.2.3.0,Phases=3,Linecode=BT810_BT810_4_3_4,Length=0.028653000,Units=km