new load.3005337922M1 bus1=RML202244718.2.0,Phases=1,kv=0.127,kW=0.43172,pf=0.92,Vminpu=0.92,Vmaxpu=1.5,model=1,daily=RES1_14,status=variable
new load.3005340894M1 bus1=RML202240196.1.3.0,Phases=2,kv=0.22,kW=0.96898,pf=0.92,Vminpu=0.92,Vmaxpu=1.5,model=1,daily=RES2_1,status=variable
new load.3005115147M1 bus1=RML202240259.2.3.0,Phases=2,kv=0.22,kW=0.48228,pf=0.92,Vminpu=0.92,Vmaxpu=1.5,model=1,daily=RES2_27,status=variable
new load.3002484379M1 bus1=RML202253818.1.0,Phases=1,kv=0.127,kW=0.92536,pf=0.92,Vminpu=0.92,Vmaxpu=1.5,model=1,daily=RES3_13,status=variable
new load.3002484381M1 bus1=RML202253825.1.2.0,Phases=2,kv=0.22,kW=0.4026,pf=0.92,Vminpu=0.92,Vmaxpu=1.5,model=1,daily=RES1_2,status=variable
new load.3002484383M1 bus1=RML202253846.2.3.0,Phases=2,kv=0.22,kW=0.9919,pf=0.92,Vminpu=0.92,Vmaxpu=1.5,model=1,daily=RES1_5,status=variable
new load.3002484386M1 bus1=RML202253629.3.0,Phases=1,kv=0.127,kW=0.79336,pf=0.92,Vminpu=0.92,Vmaxpu=1.5,model=1,daily=RES1_11,status=variable
new load.3002484387M1 bus1=RML202250122.2.0,Phases=1,kv=0.127,kW=0.99174,pf=0.92,Vminpu=0.92,Vmaxpu=1.5,model=1,daily=RES1_2,status=variable
new load.3002484389M1 bus1=RML202253643.3.0,Phases=1,kv=0.127,kW=0.6196,pf=0.92,Vminpu=0.92,Vmaxpu=1.5,model=1,daily=RES2_10,status=variable
new load.3002484397M1 bus1=RML202253636.2.3.0,Phases=2,kv=0.22,kW=1.30264,pf=0.92,Vminpu=0.92,Vmaxpu=1.5,model=1,daily=RES2_2,status=variable
new load.3002484398M1 bus1=RML202253650.2.0,Phases=1,kv=0.127,kW=0.43204,pf=0.92,Vminpu=0.92,Vmaxpu=1.5,model=1,daily=RES1_2,status=variable
new load.3002484407M1 bus1=RML202253790.2.0,Phases=1,kv=0.127,kW=0.24854,pf=0.92,Vminpu=0.92,Vmaxpu=1.5,model=1,daily=RES1_21,status=variable
new load.3002484408M1 bus1=RML202253790.2.0,Phases=1,kv=0.127,kW=0.012,pf=0.92,Vminpu=0.92,Vmaxpu=1.5,model=1,daily=RES1_18,status=variable
new load.3002484409M1 bus1=RML202253797.1.2.3.0,Phases=3,kv=0.22,kW=0.1783,pf=0.92,Vminpu=0.92,Vmaxpu=1.5,model=1,daily=RES1_10,status=variable
new load.3002484410M1 bus1=RML202253881.1.2.3.0,Phases=3,kv=0.22,kW=0.35806,pf=0.92,Vminpu=0.92,Vmaxpu=1.5,model=1,daily=RES2_22,status=variable
new load.3002484411M1 bus1=RML202253881.1.2.3.0,Phases=3,kv=0.22,kW=0.39786,pf=0.92,Vminpu=0.92,Vmaxpu=1.5,model=1,daily=RES1_22,status=variable
new load.3002484412M1 bus1=RML202253881.1.2.3.0,Phases=3,kv=0.22,kW=0.98962,pf=0.92,Vminpu=0.92,Vmaxpu=1.5,model=1,daily=RES1_15,status=variable
new load.3002484413M1 bus1=RML202253881.1.2.3.0,Phases=3,kv=0.22,kW=0.87464,pf=0.92,Vminpu=0.92,Vmaxpu=1.5,model=1,daily=RES2_4,status=variable
new load.3002484489M1 bus1=RML202248337.1.2.3.0,Phases=3,kv=0.22,kW=17.37076,pf=0.92,Vminpu=0.92,Vmaxpu=1.5,model=1,daily=COM4_11,status=variable
new load.3002484542M1 bus1=RML202248421.1.2.0,Phases=2,kv=0.22,kW=0.7885,pf=0.92,Vminpu=0.92,Vmaxpu=1.5,model=1,daily=RES2_7,status=variable
new load.3002484543M1 bus1=RML202248414.1.2.0,Phases=2,kv=0.22,kW=0.28398,pf=0.92,Vminpu=0.92,Vmaxpu=1.5,model=1,daily=RES1_19,status=variable
new load.3002484544M1 bus1=RML202248407.2.3.0,Phases=2,kv=0.22,kW=2.43268,pf=0.92,Vminpu=0.92,Vmaxpu=1.5,model=1,daily=RES1_6,status=variable
new load.3002484545M1 bus1=RML202248400.2.3.0,Phases=2,kv=0.22,kW=0.27694,pf=0.92,Vminpu=0.92,Vmaxpu=1.5,model=1,daily=RES2_27,status=variable
new load.3002484546M1 bus1=RML202248379.1.0,Phases=1,kv=0.127,kW=0.39934,pf=0.92,Vminpu=0.92,Vmaxpu=1.5,model=1,daily=RES1_14,status=variable
new load.3004345517M1 bus1=RML202248344.1.2.3.0,Phases=3,kv=0.22,kW=1.34558,pf=0.92,Vminpu=0.92,Vmaxpu=1.5,model=1,daily=RES2_2,status=variable
new load.3004889786M1 bus1=RML202248337.1.2.3.0,Phases=3,kv=0.22,kW=1.1009,pf=0.92,Vminpu=0.92,Vmaxpu=1.5,model=1,daily=RES1_14,status=variable
new load.3004889787M1 bus1=RML202248337.1.2.3.0,Phases=3,kv=0.22,kW=0.6126,pf=0.92,Vminpu=0.92,Vmaxpu=1.5,model=1,daily=RES1_11,status=variable
new load.3003529442M1 bus1=RML202429602.1.2.0,Phases=2,kv=0.24,kW=3.33292,pf=0.92,Vminpu=0.92,Vmaxpu=1.5,model=1,daily=RUR2_2,status=variable
new load.3004889898M1 bus1=RML202239923.1.3.0,Phases=2,kv=0.22,kW=0.79536,pf=0.92,Vminpu=0.92,Vmaxpu=1.5,model=1,daily=RES1_2,status=variable
new load.3005243555M1 bus1=RML202240140.1.2.0,Phases=2,kv=0.22,kW=0.80518,pf=0.92,Vminpu=0.92,Vmaxpu=1.5,model=1,daily=RES1_2,status=variable
new load.3005115146M1 bus1=RML202239895.1.2.3.0,Phases=3,kv=0.22,kW=0.50046,pf=0.92,Vminpu=0.92,Vmaxpu=1.5,model=1,daily=RES2_19,status=variable
new load.3005434206M1 bus1=RML202240028.2.3.0,Phases=2,kv=0.22,kW=0.88172,pf=0.92,Vminpu=0.92,Vmaxpu=1.5,model=1,daily=RES3_20,status=variable
new load.3000676880M1 bus1=RML202240371.1.2.3.0,Phases=3,kv=0.22,kW=1.01474,pf=0.92,Vminpu=0.92,Vmaxpu=1.5,model=1,daily=COM1_3,status=variable
new load.3000676882M1 bus1=RML202240399.1.3.0,Phases=2,kv=0.22,kW=3.47948,pf=0.92,Vminpu=0.92,Vmaxpu=1.5,model=1,daily=COM1_21,status=variable
new load.3000676875M1 bus1=RML203730587.1.2.3.0,Phases=3,kv=0.22,kW=17.9595,pf=0.92,Vminpu=0.92,Vmaxpu=1.5,model=1,daily=RUR4_5,status=variable
new load.3005382690M1 bus1=RML202240525.1.0,Phases=1,kv=0.127,kW=0.77676,pf=0.92,Vminpu=0.92,Vmaxpu=1.5,model=1,daily=RES1_4,status=variable
new load.3005207326M1 bus1=RML202240483.1.2.0,Phases=2,kv=0.22,kW=0.7131,pf=0.92,Vminpu=0.92,Vmaxpu=1.5,model=1,daily=RES2_6,status=variable
new load.3005428652M1 bus1=RML202240644.1.2.0,Phases=2,kv=0.22,kW=0.70204,pf=0.92,Vminpu=0.92,Vmaxpu=1.5,model=1,daily=RES3_19,status=variable
new load.3005157239M1 bus1=RML202241057.1.2.3.0,Phases=3,kv=0.22,kW=0.65742,pf=0.92,Vminpu=0.92,Vmaxpu=1.5,model=1,daily=RES1_8,status=variable
new load.3005382020M1 bus1=RML202241043.3.0,Phases=1,kv=0.127,kW=0.18808,pf=0.92,Vminpu=0.92,Vmaxpu=1.5,model=1,daily=RES2_18,status=variable
new load.3004483519M1 bus1=RML202241036.1.3.0,Phases=2,kv=0.22,kW=1.56578,pf=0.92,Vminpu=0.92,Vmaxpu=1.5,model=1,daily=RES2_15,status=variable
new load.3004344582M1 bus1=RML202240819.2.3.0,Phases=2,kv=0.22,kW=0.79282,pf=0.92,Vminpu=0.92,Vmaxpu=1.5,model=1,daily=RES2_10,status=variable
new load.3003671555M1 bus1=RML202240896.2.0,Phases=1,kv=0.127,kW=0.6813,pf=0.92,Vminpu=0.92,Vmaxpu=1.5,model=1,daily=RES2_23,status=variable
new load.3003970883M1 bus1=RML202240735.1.2.3.0,Phases=3,kv=0.22,kW=5.4224,pf=0.92,Vminpu=0.92,Vmaxpu=1.5,model=1,daily=RES4_1,status=variable
new load.3000676929M1 bus1=RML202240861.1.2.3.0,Phases=3,kv=0.22,kW=4.0937,pf=0.92,Vminpu=0.92,Vmaxpu=1.5,model=1,daily=RES1_13,status=variable
new load.3000676930M1 bus1=RML202240826.1.0,Phases=1,kv=0.127,kW=0.33258,pf=0.92,Vminpu=0.92,Vmaxpu=1.5,model=1,daily=RES2_28,status=variable
new load.3000676931M1 bus1=RML202240805.2.0,Phases=1,kv=0.127,kW=0.67274,pf=0.92,Vminpu=0.92,Vmaxpu=1.5,model=1,daily=RES2_1,status=variable
new load.3000676933M1 bus1=RML202240756.1.0,Phases=1,kv=0.127,kW=2.57508,pf=0.92,Vminpu=0.92,Vmaxpu=1.5,model=1,daily=RES1_6,status=variable
new load.3000676934M1 bus1=RML202240784.1.2.0,Phases=2,kv=0.22,kW=1.84648,pf=0.92,Vminpu=0.92,Vmaxpu=1.5,model=1,daily=RES2_19,status=variable
new load.3000676935M1 bus1=RML202240798.3.0,Phases=1,kv=0.127,kW=0.74666,pf=0.92,Vminpu=0.92,Vmaxpu=1.5,model=1,daily=RES3_3,status=variable
new load.3000676936M1 bus1=RML202240812.1.2.3.0,Phases=3,kv=0.22,kW=0.52648,pf=0.92,Vminpu=0.92,Vmaxpu=1.5,model=1,daily=RES3_18,status=variable
new load.3000676937M1 bus1=RML202240833.1.0,Phases=1,kv=0.127,kW=1.11712,pf=0.92,Vminpu=0.92,Vmaxpu=1.5,model=1,daily=RES2_1,status=variable
new load.3000676938M1 bus1=RML202240847.3.0,Phases=1,kv=0.127,kW=1.09508,pf=0.92,Vminpu=0.92,Vmaxpu=1.5,model=1,daily=RES2_2,status=variable
new load.3000676939M1 bus1=RML202241050.1.0,Phases=1,kv=0.127,kW=0.2363,pf=0.92,Vminpu=0.92,Vmaxpu=1.5,model=1,daily=RES1_17,status=variable
new load.3000676940M1 bus1=RML202241078.1.2.3.0,Phases=3,kv=0.22,kW=0.1799,pf=0.92,Vminpu=0.92,Vmaxpu=1.5,model=1,daily=RES1_18,status=variable
new load.3000676941M1 bus1=RML202241029.1.2.0,Phases=2,kv=0.22,kW=0.58248,pf=0.92,Vminpu=0.92,Vmaxpu=1.5,model=1,daily=RES1_11,status=variable
new load.3000676942M1 bus1=RML202240959.1.2.0,Phases=2,kv=0.22,kW=0.45192,pf=0.92,Vminpu=0.92,Vmaxpu=1.5,model=1,daily=RES1_11,status=variable
new load.3000676925M1 bus1=RML202240728.1.2.0,Phases=2,kv=0.22,kW=0.7023,pf=0.92,Vminpu=0.92,Vmaxpu=1.5,model=1,daily=RES1_12,status=variable
new load.3000676926M1 bus1=RML202240721.1.2.0,Phases=2,kv=0.22,kW=0.38782,pf=0.92,Vminpu=0.92,Vmaxpu=1.5,model=1,daily=RES2_6,status=variable
new load.3000676881M1 bus1=RML203730601.2.3.0,Phases=2,kv=0.22,kW=0.31128,pf=0.92,Vminpu=0.92,Vmaxpu=1.5,model=1,daily=COM1_12,status=variable
new load.3000676863M1 bus1=RML202241134.3.0,Phases=1,kv=0.127,kW=2.42464,pf=0.92,Vminpu=0.92,Vmaxpu=1.5,model=1,daily=RES1_5,status=variable
new load.3000676864M1 bus1=RML202241127.2.0,Phases=1,kv=0.127,kW=0.49182,pf=0.92,Vminpu=0.92,Vmaxpu=1.5,model=1,daily=RES2_27,status=variable
new load.3000676865M1 bus1=RML202241141.3.0,Phases=1,kv=0.127,kW=0.50046,pf=0.92,Vminpu=0.92,Vmaxpu=1.5,model=1,daily=RES2_19,status=variable
new load.3000676867M1 bus1=RML202241190.2.3.0,Phases=2,kv=0.22,kW=1.00708,pf=0.92,Vminpu=0.92,Vmaxpu=1.5,model=1,daily=RES2_6,status=variable
new load.3000676868M1 bus1=RML202241295.1.2.0,Phases=2,kv=0.22,kW=2.08168,pf=0.92,Vminpu=0.92,Vmaxpu=1.5,model=1,daily=RES1_2,status=variable
new load.3000676869M1 bus1=RML202241281.1.2.3.0,Phases=3,kv=0.22,kW=0.6159,pf=0.92,Vminpu=0.92,Vmaxpu=1.5,model=1,daily=RES2_5,status=variable
new load.3000676870M1 bus1=RML202241316.1.0,Phases=1,kv=0.127,kW=0.37314,pf=0.92,Vminpu=0.92,Vmaxpu=1.5,model=1,daily=RES1_2,status=variable
new load.3000676871M1 bus1=RML202241344.3.0,Phases=1,kv=0.127,kW=0.65188,pf=0.92,Vminpu=0.92,Vmaxpu=1.5,model=1,daily=RES1_10,status=variable
new load.3000676872M1 bus1=RML202241337.2.0,Phases=1,kv=0.127,kW=0.60086,pf=0.92,Vminpu=0.92,Vmaxpu=1.5,model=1,daily=RES1_12,status=variable
new load.3000676873M1 bus1=RML202241428.1.2.3.0,Phases=3,kv=0.22,kW=0.56952,pf=0.92,Vminpu=0.92,Vmaxpu=1.5,model=1,daily=RES1_2,status=variable
new load.3000676874M1 bus1=RML202241554.1.0,Phases=1,kv=0.127,kW=0.77142,pf=0.92,Vminpu=0.92,Vmaxpu=1.5,model=1,daily=RES1_9,status=variable
new load.3000676883M1 bus1=RML202241526.3.0,Phases=1,kv=0.127,kW=1.3098,pf=0.92,Vminpu=0.92,Vmaxpu=1.5,model=1,daily=RES2_2,status=variable
new load.3000676884M1 bus1=RML202241519.3.0,Phases=1,kv=0.127,kW=0.93284,pf=0.92,Vminpu=0.92,Vmaxpu=1.5,model=1,daily=RES1_2,status=variable
new load.3000676885M1 bus1=RML202241533.1.0,Phases=1,kv=0.127,kW=0.58916,pf=0.92,Vminpu=0.92,Vmaxpu=1.5,model=1,daily=RES1_2,status=variable
new load.3000676886M1 bus1=RML203730608.2.0,Phases=1,kv=0.127,kW=1.4193,pf=0.92,Vminpu=0.92,Vmaxpu=1.5,model=1,daily=RES2_7,status=variable
new load.3000676887M1 bus1=RML202241575.2.0,Phases=1,kv=0.127,kW=0.79892,pf=0.92,Vminpu=0.92,Vmaxpu=1.5,model=1,daily=RES1_1,status=variable
new load.3000676888M1 bus1=RML202241610.3.0,Phases=1,kv=0.127,kW=0.69426,pf=0.92,Vminpu=0.92,Vmaxpu=1.5,model=1,daily=RES1_23,status=variable
new load.3000676889M1 bus1=RML202241603.1.2.0,Phases=2,kv=0.22,kW=0.99458,pf=0.92,Vminpu=0.92,Vmaxpu=1.5,model=1,daily=RES2_6,status=variable
new load.3000676892M1 bus1=RML202241582.2.3.0,Phases=2,kv=0.22,kW=0.61862,pf=0.92,Vminpu=0.92,Vmaxpu=1.5,model=1,daily=RES1_2,status=variable
new load.3000676893M1 bus1=RML202241589.1.0,Phases=1,kv=0.127,kW=0.70548,pf=0.92,Vminpu=0.92,Vmaxpu=1.5,model=1,daily=RES2_5,status=variable
new load.3000676894M1 bus1=RML202241596.2.0,Phases=1,kv=0.127,kW=0.72422,pf=0.92,Vminpu=0.92,Vmaxpu=1.5,model=1,daily=RES1_16,status=variable
new load.3000676895M1 bus1=RML202241561.2.0,Phases=1,kv=0.127,kW=1.77448,pf=0.92,Vminpu=0.92,Vmaxpu=1.5,model=1,daily=RES1_26,status=variable
new load.3000676896M1 bus1=RML202241540.1.2.3.0,Phases=3,kv=0.22,kW=0.51534,pf=0.92,Vminpu=0.92,Vmaxpu=1.5,model=1,daily=RES2_2,status=variable
new load.3000676897M1 bus1=RML202241421.1.2.3.0,Phases=3,kv=0.22,kW=0.26982,pf=0.92,Vminpu=0.92,Vmaxpu=1.5,model=1,daily=RES1_14,status=variable
new load.3000676898M1 bus1=RML202241421.1.2.3.0,Phases=3,kv=0.22,kW=0.83068,pf=0.92,Vminpu=0.92,Vmaxpu=1.5,model=1,daily=RES1_6,status=variable
new load.3000676899M1 bus1=RML202241421.1.2.3.0,Phases=3,kv=0.22,kW=0.74946,pf=0.92,Vminpu=0.92,Vmaxpu=1.5,model=1,daily=RES1_8,status=variable
new load.3000676900M1 bus1=RML202241372.1.0,Phases=1,kv=0.127,kW=0.4325,pf=0.92,Vminpu=0.92,Vmaxpu=1.5,model=1,daily=RES3_7,status=variable
new load.3000676901M1 bus1=RML202241505.3.0,Phases=1,kv=0.127,kW=0.81982,pf=0.92,Vminpu=0.92,Vmaxpu=1.5,model=1,daily=RES2_12,status=variable
new load.3000676902M1 bus1=RML202241407.1.2.3.0,Phases=3,kv=0.22,kW=0.76584,pf=0.92,Vminpu=0.92,Vmaxpu=1.5,model=1,daily=RES2_2,status=variable
new load.3000676903M1 bus1=RML202241400.1.2.3.0,Phases=3,kv=0.22,kW=0.41014,pf=0.92,Vminpu=0.92,Vmaxpu=1.5,model=1,daily=RES1_14,status=variable
new load.3000676904M1 bus1=RML202241393.1.2.3.0,Phases=3,kv=0.22,kW=0.66454,pf=0.92,Vminpu=0.92,Vmaxpu=1.5,model=1,daily=RES1_6,status=variable
new load.3000676905M1 bus1=RML202241386.1.0,Phases=1,kv=0.127,kW=0.78518,pf=0.92,Vminpu=0.92,Vmaxpu=1.5,model=1,daily=RES1_25,status=variable
new load.3000676906M1 bus1=RML202241260.1.0,Phases=1,kv=0.127,kW=0.87908,pf=0.92,Vminpu=0.92,Vmaxpu=1.5,model=1,daily=RES1_24,status=variable
new load.3000676907M1 bus1=RML202241246.2.3.0,Phases=2,kv=0.22,kW=0.36206,pf=0.92,Vminpu=0.92,Vmaxpu=1.5,model=1,daily=RES2_18,status=variable
new load.3000676911M1 bus1=RML202241148.1.2.3.0,Phases=3,kv=0.22,kW=0.9233,pf=0.92,Vminpu=0.92,Vmaxpu=1.5,model=1,daily=RES2_2,status=variable
new load.3000676912M1 bus1=RML202241155.1.0,Phases=1,kv=0.127,kW=1.62938,pf=0.92,Vminpu=0.92,Vmaxpu=1.5,model=1,daily=RES2_1,status=variable
new load.3000676913M1 bus1=RML202241239.3.0,Phases=1,kv=0.127,kW=0.27358,pf=0.92,Vminpu=0.92,Vmaxpu=1.5,model=1,daily=RES1_20,status=variable
new load.3000676914M1 bus1=RML202241414.1.0,Phases=1,kv=0.127,kW=0.48356,pf=0.92,Vminpu=0.92,Vmaxpu=1.5,model=1,daily=RES1_1,status=variable
new load.3000676916M1 bus1=RML202241379.2.3.0,Phases=2,kv=0.22,kW=1.05448,pf=0.92,Vminpu=0.92,Vmaxpu=1.5,model=1,daily=RES1_11,status=variable
new load.3000676917M1 bus1=RML202241358.2.3.0,Phases=2,kv=0.22,kW=0.70324,pf=0.92,Vminpu=0.92,Vmaxpu=1.5,model=1,daily=RES1_16,status=variable
new load.3000676918M1 bus1=RML202241176.1.2.0,Phases=2,kv=0.22,kW=1.36864,pf=0.92,Vminpu=0.92,Vmaxpu=1.5,model=1,daily=RES1_15,status=variable
new load.3000676919M1 bus1=RML202241169.1.2.0,Phases=2,kv=0.22,kW=0.79172,pf=0.92,Vminpu=0.92,Vmaxpu=1.5,model=1,daily=RES1_9,status=variable
new load.3000676920M1 bus1=RML202241309.2.3.0,Phases=2,kv=0.22,kW=0.80262,pf=0.92,Vminpu=0.92,Vmaxpu=1.5,model=1,daily=RES1_25,status=variable
new load.3000676921M1 bus1=RML202241302.3.0,Phases=1,kv=0.127,kW=0.6551,pf=0.92,Vminpu=0.92,Vmaxpu=1.5,model=1,daily=RES2_5,status=variable
new load.3000676922M1 bus1=RML202241288.3.0,Phases=1,kv=0.127,kW=1.00784,pf=0.92,Vminpu=0.92,Vmaxpu=1.5,model=1,daily=RES2_5,status=variable
new load.3000676923M1 bus1=RML202241211.2.0,Phases=1,kv=0.127,kW=0.57548,pf=0.92,Vminpu=0.92,Vmaxpu=1.5,model=1,daily=RES2_6,status=variable
new load.3000676924M1 bus1=RML202241120.1.2.3.0,Phases=3,kv=0.22,kW=0.93118,pf=0.92,Vminpu=0.92,Vmaxpu=1.5,model=1,daily=RES2_7,status=variable
new load.3003390193M1 bus1=RML202241099.1.2.0,Phases=2,kv=0.22,kW=0.7879,pf=0.92,Vminpu=0.92,Vmaxpu=1.5,model=1,daily=RES1_14,status=variable
new load.3003390194M1 bus1=RML202241092.1.2.3.0,Phases=3,kv=0.22,kW=0.7819,pf=0.92,Vminpu=0.92,Vmaxpu=1.5,model=1,daily=RES2_6,status=variable
new load.3004308121M1 bus1=RML202241267.1.3.0,Phases=2,kv=0.22,kW=0.7476,pf=0.92,Vminpu=0.92,Vmaxpu=1.5,model=1,daily=RES1_6,status=variable
new load.3005206202M1 bus1=RML202241617.1.3.0,Phases=2,kv=0.22,kW=0.4878,pf=0.92,Vminpu=0.92,Vmaxpu=1.5,model=1,daily=IND1_11,status=variable
new load.3004933154M1 bus1=RML202241855.1.3.0,Phases=2,kv=0.22,kW=0.45734,pf=0.92,Vminpu=0.92,Vmaxpu=1.5,model=1,daily=RES2_17,status=variable
new load.3003484544M1 bus1=RML202241722.1.2.0,Phases=2,kv=0.22,kW=0.50382,pf=0.92,Vminpu=0.92,Vmaxpu=1.5,model=1,daily=RES1_16,status=variable
new load.3000676943M1 bus1=RML202241680.2.0,Phases=1,kv=0.127,kW=0.25904,pf=0.92,Vminpu=0.92,Vmaxpu=1.5,model=1,daily=RES1_14,status=variable
new load.3000676944M1 bus1=RML202241687.1.3.0,Phases=2,kv=0.22,kW=1.5758,pf=0.92,Vminpu=0.92,Vmaxpu=1.5,model=1,daily=RES1_14,status=variable
new load.3000676945M1 bus1=RML202241687.1.3.0,Phases=2,kv=0.22,kW=0.78178,pf=0.92,Vminpu=0.92,Vmaxpu=1.5,model=1,daily=RES1_3,status=variable
new load.3000676946M1 bus1=RML202241876.2.3.0,Phases=2,kv=0.22,kW=0.12214,pf=0.92,Vminpu=0.92,Vmaxpu=1.5,model=1,daily=RES1_23,status=variable
new load.3000676947M1 bus1=RML202241883.1.2.0,Phases=2,kv=0.22,kW=2.44408,pf=0.92,Vminpu=0.92,Vmaxpu=1.5,model=1,daily=RES3_10,status=variable
new load.3000676948M1 bus1=RML202241834.1.2.0,Phases=2,kv=0.22,kW=0.1938,pf=0.92,Vminpu=0.92,Vmaxpu=1.5,model=1,daily=RES1_20,status=variable
new load.3000676949M1 bus1=RML202241841.1.2.0,Phases=2,kv=0.22,kW=2.0816,pf=0.92,Vminpu=0.92,Vmaxpu=1.5,model=1,daily=RES3_3,status=variable
new load.3000676950M1 bus1=RML202241848.2.0,Phases=1,kv=0.127,kW=0.7779,pf=0.92,Vminpu=0.92,Vmaxpu=1.5,model=1,daily=RES1_1,status=variable
new load.3000676951M1 bus1=RML202241750.1.0,Phases=1,kv=0.127,kW=1.0964,pf=0.92,Vminpu=0.92,Vmaxpu=1.5,model=1,daily=RES2_7,status=variable
new load.3000676952M1 bus1=RML202241736.3.0,Phases=1,kv=0.127,kW=0.4615,pf=0.92,Vminpu=0.92,Vmaxpu=1.5,model=1,daily=RES1_2,status=variable
new load.3000676953M1 bus1=RML202241708.2.3.0,Phases=2,kv=0.22,kW=1.90158,pf=0.92,Vminpu=0.92,Vmaxpu=1.5,model=1,daily=RES2_6,status=variable
new load.3000676928M1 bus1=RML202241659.1.2.0,Phases=2,kv=0.22,kW=1.509,pf=0.92,Vminpu=0.92,Vmaxpu=1.5,model=1,daily=RES2_4,status=variable
new load.3003436652M1 bus1=RML202241946.1.2.0,Phases=2,kv=0.22,kW=0.70298,pf=0.92,Vminpu=0.92,Vmaxpu=1.5,model=1,daily=RES1_11,status=variable
new load.3004010867M1 bus1=RML202242030.2.3.0,Phases=2,kv=0.22,kW=1.05822,pf=0.92,Vminpu=0.92,Vmaxpu=1.5,model=1,daily=RES2_5,status=variable
new load.3004057326M1 bus1=RML202241925.1.0,Phases=1,kv=0.127,kW=1.1189,pf=0.92,Vminpu=0.92,Vmaxpu=1.5,model=1,daily=RES3_4,status=variable
new load.3002850561M1 bus1=RML202241939.3.0,Phases=1,kv=0.127,kW=0.54312,pf=0.92,Vminpu=0.92,Vmaxpu=1.5,model=1,daily=RES2_5,status=variable
new load.3002850562M1 bus1=RML202242051.1.0,Phases=1,kv=0.127,kW=0.80822,pf=0.92,Vminpu=0.92,Vmaxpu=1.5,model=1,daily=RES1_5,status=variable
new load.3002850563M1 bus1=RML202242037.2.0,Phases=1,kv=0.127,kW=0.28774,pf=0.92,Vminpu=0.92,Vmaxpu=1.5,model=1,daily=RES2_6,status=variable
new load.3002850564M1 bus1=RML202242065.1.2.3.0,Phases=3,kv=0.22,kW=1.29916,pf=0.92,Vminpu=0.92,Vmaxpu=1.5,model=1,daily=RES2_10,status=variable
new load.3005559349M1 bus1=RML202241988.1.3.0,Phases=2,kv=0.22,kW=0.74158,pf=0.92,Vminpu=0.92,Vmaxpu=1.5,model=1,daily=RES1_26,status=variable
new load.3005692874M1 bus1=RML202242191.1.0,Phases=1,kv=0.127,kW=0.8332,pf=0.92,Vminpu=0.92,Vmaxpu=1.5,model=1,daily=RES2_1,status=variable
new load.3005115148M1 bus1=RML202242247.1.2.3.0,Phases=3,kv=0.22,kW=1.75634,pf=0.92,Vminpu=0.92,Vmaxpu=1.5,model=1,daily=IND1_9,status=variable
new load.3004893263M1 bus1=RML202242177.1.2.3.0,Phases=3,kv=0.22,kW=1.91378,pf=0.92,Vminpu=0.92,Vmaxpu=1.5,model=1,daily=COM1_10,status=variable
new load.3004845161M1 bus1=RML202242093.2.3.0,Phases=2,kv=0.22,kW=1.70124,pf=0.92,Vminpu=0.92,Vmaxpu=1.5,model=1,daily=RES2_4,status=variable
new load.3004848474M1 bus1=RML202242212.2.0,Phases=1,kv=0.127,kW=0.54312,pf=0.92,Vminpu=0.92,Vmaxpu=1.5,model=1,daily=RES2_5,status=variable
new load.3002850553M1 bus1=RML202242261.2.0,Phases=1,kv=0.127,kW=0.8906,pf=0.92,Vminpu=0.92,Vmaxpu=1.5,model=1,daily=RES2_17,status=variable
new load.3004012738M1 bus1=RML202242380.2.3.0,Phases=2,kv=0.22,kW=1.03622,pf=0.92,Vminpu=0.92,Vmaxpu=1.5,model=1,daily=RES3_12,status=variable
new load.3003871504M1 bus1=RML202242457.1.3.0,Phases=2,kv=0.22,kW=1.57108,pf=0.92,Vminpu=0.92,Vmaxpu=1.5,model=1,daily=RES1_2,status=variable
new load.3003774747M1 bus1=RML202242436.3.0,Phases=1,kv=0.127,kW=0.80402,pf=0.92,Vminpu=0.92,Vmaxpu=1.5,model=1,daily=RES1_4,status=variable
new load.3003627553M1 bus1=RML202242681.1.2.0,Phases=2,kv=0.22,kW=1.1838,pf=0.92,Vminpu=0.92,Vmaxpu=1.5,model=1,daily=RES3_16,status=variable
new load.3004622420M1 bus1=RML210812514.1.2.0,Phases=2,kv=0.22,kW=0.54624,pf=0.92,Vminpu=0.92,Vmaxpu=1.5,model=1,daily=RES1_12,status=variable
new load.3004141319M1 bus1=RML202242373.1.2.3.0,Phases=3,kv=0.22,kW=2.63912,pf=0.92,Vminpu=0.92,Vmaxpu=1.5,model=1,daily=IND1_16,status=variable
new load.3005205613M1 bus1=RML202242275.3.0,Phases=1,kv=0.127,kW=1.27386,pf=0.92,Vminpu=0.92,Vmaxpu=1.5,model=1,daily=RES2_15,status=variable
new load.3005293321M1 bus1=RML202242464.1.2.3.0,Phases=3,kv=0.22,kW=1.43722,pf=0.92,Vminpu=0.92,Vmaxpu=1.5,model=1,daily=RES1_24,status=variable
new load.3000676955M1 bus1=RML202242555.1.2.0,Phases=2,kv=0.22,kW=0.9875,pf=0.92,Vminpu=0.92,Vmaxpu=1.5,model=1,daily=RES2_1,status=variable
new load.3000676956M1 bus1=RML202242548.1.2.0,Phases=2,kv=0.22,kW=0.7168,pf=0.92,Vminpu=0.92,Vmaxpu=1.5,model=1,daily=RES1_2,status=variable
new load.3000676957M1 bus1=RML202242611.1.2.3.0,Phases=3,kv=0.22,kW=1.4612,pf=0.92,Vminpu=0.92,Vmaxpu=1.5,model=1,daily=RES1_1,status=variable
new load.3000676958M1 bus1=RML202242604.1.2.3.0,Phases=3,kv=0.22,kW=0.61608,pf=0.92,Vminpu=0.92,Vmaxpu=1.5,model=1,daily=RES1_7,status=variable
new load.3000676959M1 bus1=RML202242653.1.3.0,Phases=2,kv=0.22,kW=0.93828,pf=0.92,Vminpu=0.92,Vmaxpu=1.5,model=1,daily=RES2_6,status=variable
new load.3000676960M1 bus1=RML202242667.1.2.3.0,Phases=3,kv=0.22,kW=0.75688,pf=0.92,Vminpu=0.92,Vmaxpu=1.5,model=1,daily=RES1_1,status=variable
new load.3000676855M1 bus1=RML202242520.1.0,Phases=1,kv=0.127,kW=0.02698,pf=0.92,Vminpu=0.92,Vmaxpu=1.5,model=1,daily=RES1_18,status=variable
new load.3000676856M1 bus1=RML202242527.2.3.0,Phases=2,kv=0.22,kW=0.23794,pf=0.92,Vminpu=0.92,Vmaxpu=1.5,model=1,daily=RES2_28,status=variable
new load.3000676857M1 bus1=RML202242534.1.3.0,Phases=2,kv=0.22,kW=0.07308,pf=0.92,Vminpu=0.92,Vmaxpu=1.5,model=1,daily=COM1_2,status=variable
new load.3000676858M1 bus1=RML202242478.1.2.0,Phases=2,kv=0.22,kW=0.88374,pf=0.92,Vminpu=0.92,Vmaxpu=1.5,model=1,daily=RES1_2,status=variable
new load.3000676859M1 bus1=RML202242338.2.0,Phases=1,kv=0.127,kW=0.4599,pf=0.92,Vminpu=0.92,Vmaxpu=1.5,model=1,daily=RES1_7,status=variable
new load.3000676860M1 bus1=RML202242317.2.3.0,Phases=2,kv=0.22,kW=0.26502,pf=0.92,Vminpu=0.92,Vmaxpu=1.5,model=1,daily=RES2_27,status=variable
new load.3000676861M1 bus1=RML202242296.1.2.3.0,Phases=3,kv=0.22,kW=2.31452,pf=0.92,Vminpu=0.92,Vmaxpu=1.5,model=1,daily=RES3_6,status=variable
new load.3000676862M1 bus1=RML202242282.1.2.0,Phases=2,kv=0.22,kW=0.39558,pf=0.92,Vminpu=0.92,Vmaxpu=1.5,model=1,daily=RES1_10,status=variable
new load.3002850523M1 bus1=RML202242744.2.3.0,Phases=2,kv=0.22,kW=1.55898,pf=0.92,Vminpu=0.92,Vmaxpu=1.5,model=1,daily=RES3_15,status=variable
new load.3002850556M1 bus1=RML202242884.1.2.3.0,Phases=3,kv=0.22,kW=0.7036,pf=0.92,Vminpu=0.92,Vmaxpu=1.5,model=1,daily=RES2_1,status=variable
new load.3002850557M1 bus1=RML202242821.1.2.0,Phases=2,kv=0.22,kW=0.36292,pf=0.92,Vminpu=0.92,Vmaxpu=1.5,model=1,daily=RES2_26,status=variable
new load.3002850558M1 bus1=RML202242821.1.2.0,Phases=2,kv=0.22,kW=1.3911,pf=0.92,Vminpu=0.92,Vmaxpu=1.5,model=1,daily=RES1_3,status=variable
new load.3002850559M1 bus1=RML202242765.3.0,Phases=1,kv=0.127,kW=0.72534,pf=0.92,Vminpu=0.92,Vmaxpu=1.5,model=1,daily=RES1_1,status=variable
new load.3002850560M1 bus1=RML202242772.1.0,Phases=1,kv=0.127,kW=0.67682,pf=0.92,Vminpu=0.92,Vmaxpu=1.5,model=1,daily=RES1_7,status=variable
new load.3002850587M1 bus1=RML202243031.1.3.0,Phases=2,kv=0.22,kW=1.53466,pf=0.92,Vminpu=0.92,Vmaxpu=1.5,model=1,daily=RES3_4,status=variable
new load.3002850565M1 bus1=RML202242891.3.0,Phases=1,kv=0.127,kW=0.49332,pf=0.92,Vminpu=0.92,Vmaxpu=1.5,model=1,daily=RES1_16,status=variable
new load.3002850566M1 bus1=RML202242919.1.2.3.0,Phases=3,kv=0.22,kW=0.51918,pf=0.92,Vminpu=0.92,Vmaxpu=1.5,model=1,daily=RES2_6,status=variable
new load.3002850567M1 bus1=RML202242961.1.0,Phases=1,kv=0.127,kW=0.6332,pf=0.92,Vminpu=0.92,Vmaxpu=1.5,model=1,daily=RES2_24,status=variable
new load.3002850568M1 bus1=RML202242947.2.3.0,Phases=2,kv=0.22,kW=1.14582,pf=0.92,Vminpu=0.92,Vmaxpu=1.5,model=1,daily=RES1_1,status=variable
new load.3002850570M1 bus1=RML202242975.2.3.0,Phases=2,kv=0.22,kW=0.17178,pf=0.92,Vminpu=0.92,Vmaxpu=1.5,model=1,daily=COM2_2,status=variable
new load.3002850571M1 bus1=RML202243003.2.3.0,Phases=2,kv=0.22,kW=7.00088,pf=0.92,Vminpu=0.92,Vmaxpu=1.5,model=1,daily=RES1_16,status=variable
new load.3002850572M1 bus1=RML202243045.2.3.0,Phases=2,kv=0.22,kW=1.26356,pf=0.92,Vminpu=0.92,Vmaxpu=1.5,model=1,daily=RES2_6,status=variable
new load.3002850573M1 bus1=RML202243052.1.2.0,Phases=2,kv=0.22,kW=0.82482,pf=0.92,Vminpu=0.92,Vmaxpu=1.5,model=1,daily=RES1_2,status=variable
new load.3002850574M1 bus1=RML202243059.1.2.3.0,Phases=3,kv=0.22,kW=0.39886,pf=0.92,Vminpu=0.92,Vmaxpu=1.5,model=1,daily=RES1_16,status=variable
new load.3002850575M1 bus1=RML202243066.1.2.3.0,Phases=3,kv=0.22,kW=0.8793,pf=0.92,Vminpu=0.92,Vmaxpu=1.5,model=1,daily=RES2_18,status=variable
new load.3002850576M1 bus1=RML202243073.1.2.0,Phases=2,kv=0.22,kW=0.62022,pf=0.92,Vminpu=0.92,Vmaxpu=1.5,model=1,daily=RES1_1,status=variable
new load.3002850578M1 bus1=RML202243017.1.2.0,Phases=2,kv=0.22,kW=0.93508,pf=0.92,Vminpu=0.92,Vmaxpu=1.5,model=1,daily=RES2_26,status=variable
new load.3003387984M1 bus1=RML202243024.1.3.0,Phases=2,kv=0.22,kW=0.96874,pf=0.92,Vminpu=0.92,Vmaxpu=1.5,model=1,daily=RES2_7,status=variable
new load.3004983685M1 bus1=RML202242933.2.3.0,Phases=2,kv=0.22,kW=0.10496,pf=0.92,Vminpu=0.92,Vmaxpu=1.5,model=1,daily=RES1_16,status=variable
new load.3004623153M1 bus1=RML202242989.1.3.0,Phases=2,kv=0.22,kW=1.9223,pf=0.92,Vminpu=0.92,Vmaxpu=1.5,model=1,daily=RES2_4,status=variable
new load.3004706990M1 bus1=RML202242912.1.2.3.0,Phases=3,kv=0.22,kW=0.023,pf=0.92,Vminpu=0.92,Vmaxpu=1.5,model=1,daily=RES1_3,status=variable
new load.3004760091M1 bus1=RML202242982.1.2.0,Phases=2,kv=0.22,kW=0.2099,pf=0.92,Vminpu=0.92,Vmaxpu=1.5,model=1,daily=RES1_18,status=variable
new load.3002850555M1 bus1=RML202243129.2.3.0,Phases=2,kv=0.22,kW=0.27564,pf=0.92,Vminpu=0.92,Vmaxpu=1.5,model=1,daily=RES1_21,status=variable
new load.3002850551M1 bus1=RML202243276.1.2.0,Phases=2,kv=0.22,kW=0.97624,pf=0.92,Vminpu=0.92,Vmaxpu=1.5,model=1,daily=RES2_7,status=variable
new load.3002850552M1 bus1=RML202243262.2.3.0,Phases=2,kv=0.22,kW=1.05056,pf=0.92,Vminpu=0.92,Vmaxpu=1.5,model=1,daily=RES2_13,status=variable
new load.3003486898M1 bus1=RML202243283.2.3.0,Phases=2,kv=0.22,kW=0.67278,pf=0.92,Vminpu=0.92,Vmaxpu=1.5,model=1,daily=RES1_1,status=variable
new load.3005696297M1 bus1=RML202244032.1.3.0,Phases=2,kv=0.22,kW=0.19742,pf=0.92,Vminpu=0.92,Vmaxpu=1.5,model=1,daily=COM1_9,status=variable
new load.3004755375M1 bus1=RML202244249.1.2.3.0,Phases=3,kv=0.22,kW=1.66092,pf=0.92,Vminpu=0.92,Vmaxpu=1.5,model=1,daily=RES1_1,status=variable
new load.3004667463M1 bus1=RML202244249.1.2.3.0,Phases=3,kv=0.22,kW=0.59424,pf=0.92,Vminpu=0.92,Vmaxpu=1.5,model=1,daily=RES2_6,status=variable
new load.3004577859M1 bus1=RML202244081.1.3.0,Phases=2,kv=0.22,kW=0.37054,pf=0.92,Vminpu=0.92,Vmaxpu=1.5,model=1,daily=RES1_21,status=variable
new load.3004009273M1 bus1=RML202244242.1.2.0,Phases=2,kv=0.22,kW=1.53102,pf=0.92,Vminpu=0.92,Vmaxpu=1.5,model=1,daily=RES3_3,status=variable
new load.3004095755M1 bus1=RML204167114.1.2.3.0,Phases=3,kv=0.22,kW=1.0957,pf=0.92,Vminpu=0.92,Vmaxpu=1.5,model=1,daily=RES2_4,status=variable
new load.3002850541M1 bus1=RML202244193.1.3.0,Phases=2,kv=0.22,kW=0.6764,pf=0.92,Vminpu=0.92,Vmaxpu=1.5,model=1,daily=RES1_6,status=variable
new load.3002850542M1 bus1=RML202244067.2.0,Phases=1,kv=0.127,kW=0.64212,pf=0.92,Vminpu=0.92,Vmaxpu=1.5,model=1,daily=RES1_7,status=variable
new load.3002850543M1 bus1=RML202244130.1.3.0,Phases=2,kv=0.22,kW=0.83552,pf=0.92,Vminpu=0.92,Vmaxpu=1.5,model=1,daily=RES2_28,status=variable
new load.3002850544M1 bus1=RML202244165.1.0,Phases=1,kv=0.127,kW=0.48294,pf=0.92,Vminpu=0.92,Vmaxpu=1.5,model=1,daily=RES2_16,status=variable
new load.3002850545M1 bus1=RML202244214.2.3.0,Phases=2,kv=0.22,kW=0.85244,pf=0.92,Vminpu=0.92,Vmaxpu=1.5,model=1,daily=RES1_10,status=variable
new load.3002850546M1 bus1=RML202244256.2.0,Phases=1,kv=0.127,kW=0.36726,pf=0.92,Vminpu=0.92,Vmaxpu=1.5,model=1,daily=RES1_22,status=variable
new load.3002850524M1 bus1=RML202244382.1.2.3.0,Phases=3,kv=0.22,kW=0.6028,pf=0.92,Vminpu=0.92,Vmaxpu=1.5,model=1,daily=COM1_21,status=variable
new load.3002850548M1 bus1=RML202244312.1.2.0,Phases=2,kv=0.22,kW=4.2351,pf=0.92,Vminpu=0.92,Vmaxpu=1.5,model=1,daily=RES3_1,status=variable
new load.3002850549M1 bus1=RML202244305.2.3.0,Phases=2,kv=0.22,kW=0.75062,pf=0.92,Vminpu=0.92,Vmaxpu=1.5,model=1,daily=RES2_6,status=variable
new load.3002850550M1 bus1=RML202244291.1.2.3.0,Phases=3,kv=0.22,kW=3.11644,pf=0.92,Vminpu=0.92,Vmaxpu=1.5,model=1,daily=RES3_14,status=variable
new load.3002850579M1 bus1=RML202244368.2.3.0,Phases=2,kv=0.22,kW=0.17636,pf=0.92,Vminpu=0.92,Vmaxpu=1.5,model=1,daily=RES1_19,status=variable
new load.3002850580M1 bus1=RML202244277.1.2.3.0,Phases=3,kv=0.22,kW=2.25912,pf=0.92,Vminpu=0.92,Vmaxpu=1.5,model=1,daily=RES5_3,status=variable
new load.3002850581M1 bus1=RML202244326.1.2.0,Phases=2,kv=0.22,kW=0.96304,pf=0.92,Vminpu=0.92,Vmaxpu=1.5,model=1,daily=RES2_5,status=variable
new load.3002850582M1 bus1=RML202244375.1.2.0,Phases=2,kv=0.22,kW=0.1889,pf=0.92,Vminpu=0.92,Vmaxpu=1.5,model=1,daily=RES1_18,status=variable