! manter este comentario para compatibilidade do C#
new circuit.alimANAD08 bus1=BMT119811927.1.2.3,basekv=13.800000000,pu=1.040000000

