new line.RML10082734 bus1=BBT2585030.1.2.0,bus2=RML210082734.1.2.0,Phases=2,Linecode=CABBTG04_4_2,Length=0.017000000,Units=km
new line.RML10128194 bus1=BBT1614144.3.0,bus2=RML210128194.3.0,Phases=1,Linecode=CABBTG02_4_1,Length=0.017000000,Units=km
new line.RML10132813 bus1=BBT1613339.1.3.0,bus2=RML210132813.1.3.0,Phases=2,Linecode=CABBTG05_4_2,Length=0.017000000,Units=km
new line.RML10132819 bus1=BBT1614319.1.0,bus2=RML210132819.1.0,Phases=1,Linecode=CABBTG02_4_1,Length=0.017000000,Units=km
new line.RML10132825 bus1=BBT1612835.1.3.0,bus2=RML210132825.1.3.0,Phases=2,Linecode=CABBTG05_4_2,Length=0.017000000,Units=km
new line.RML10134303 bus1=BBT65466076.1.0,bus2=RML210134303.1.0,Phases=1,Linecode=CABBTG01_4_1,Length=0.017000000,Units=km
new line.RML10197060 bus1=BBT65465278.1.0,bus2=RML210197060.1.0,Phases=1,Linecode=CABBTG02_4_1,Length=0.017000000,Units=km
new line.RML10197102 bus1=BBT1609258.2.0,bus2=RML210197102.2.0,Phases=1,Linecode=CABBTG02_4_1,Length=0.017000000,Units=km
new line.RML10199628 bus1=BBT1609202.1.0,bus2=RML210199628.1.0,Phases=1,Linecode=CABBTG02_4_1,Length=0.017000000,Units=km
new line.RML10199648 bus1=BBT1609216.2.3.0,bus2=RML210199648.2.3.0,Phases=2,Linecode=CABBTG05_4_2,Length=0.017000000,Units=km
new line.RML10199659 bus1=BBT1765694.1.3.0,bus2=RML210199659.1.3.0,Phases=2,Linecode=CABBTG05_4_2,Length=0.017000000,Units=km
new line.RML10199681 bus1=BBT1754396.1.0,bus2=RML210199681.1.0,Phases=1,Linecode=CABBTG02_4_1,Length=0.017000000,Units=km
new line.RML10199684 bus1=BBT1754396.3.0,bus2=RML210199684.3.0,Phases=1,Linecode=CABBTG02_4_1,Length=0.017000000,Units=km
new line.RML10199688 bus1=BBT65465278.3.0,bus2=RML210199688.3.0,Phases=1,Linecode=CABBTG02_4_1,Length=0.017000000,Units=km
new line.RML10199705 bus1=BBT1610630.2.0,bus2=RML210199705.2.0,Phases=1,Linecode=CABBTG02_4_1,Length=0.017000000,Units=km
new line.RML10199709 bus1=BBT1610630.3.0,bus2=RML210199709.3.0,Phases=1,Linecode=CABBTG02_4_1,Length=0.017000000,Units=km
new line.RML10199720 bus1=BBT1610784.1.3.0,bus2=RML210199720.1.3.0,Phases=2,Linecode=CABBTG05_4_2,Length=0.017000000,Units=km
new line.RML10199733 bus1=BBT1608866.2.3.0,bus2=RML210199733.2.3.0,Phases=2,Linecode=CABBTG05_4_2,Length=0.017000000,Units=km
new line.RML10199736 bus1=BBT148704330.1.2.3.0,bus2=RML210199736.1.2.3.0,Phases=3,Linecode=CABBTG06_4_3,Length=0.017000000,Units=km
new line.RML10199759 bus1=BBT1609244.1.0,bus2=RML210199759.1.0,Phases=1,Linecode=CABBTG02_4_1,Length=0.017000000,Units=km
new line.RML10199763 bus1=BBT1609244.1.0,bus2=RML210199763.1.0,Phases=1,Linecode=CABBTG02_4_1,Length=0.017000000,Units=km
new line.RML10199765 bus1=BBT1609244.1.0,bus2=RML210199765.1.0,Phases=1,Linecode=CABBTG02_4_1,Length=0.017000000,Units=km
new line.RML10199792 bus1=BBT65465278.1.0,bus2=RML210199792.1.0,Phases=1,Linecode=CABBTG02_4_1,Length=0.017000000,Units=km
new line.RML10199797 bus1=BBT1610546.1.0,bus2=RML210199797.1.0,Phases=1,Linecode=CABBTG02_4_1,Length=0.017000000,Units=km
new line.RML10199801 bus1=BBT1784265.2.0,bus2=RML210199801.2.0,Phases=1,Linecode=CABBTG02_4_1,Length=0.017000000,Units=km
new line.RML10199820 bus1=BBT1609195.3.0,bus2=RML210199820.3.0,Phases=1,Linecode=CABBTG02_4_1,Length=0.017000000,Units=km
new line.RML10199852 bus1=BBT145980762.3.0,bus2=RML210199852.3.0,Phases=1,Linecode=CABBTG02_4_1,Length=0.017000000,Units=km
new line.RML10199879 bus1=BBT1609027.1.2.3.0,bus2=RML210199879.1.2.3.0,Phases=3,Linecode=CABBTG06_4_3,Length=0.017000000,Units=km
new line.RML10199910 bus1=BBT65466062.1.3.0,bus2=RML210199910.1.3.0,Phases=2,Linecode=CABBTG05_4_2,Length=0.017000000,Units=km
new line.RML10199912 bus1=BBT1621585.1.3.0,bus2=RML210199912.1.3.0,Phases=2,Linecode=CABBTG05_4_2,Length=0.017000000,Units=km
new line.RML10199915 bus1=BBT148029560.1.3.0,bus2=RML210199915.1.3.0,Phases=2,Linecode=CABBTG05_4_2,Length=0.017000000,Units=km
new line.RML10199923 bus1=BBT1612058.1.3.0,bus2=RML210199923.1.3.0,Phases=2,Linecode=CABBTG05_4_2,Length=0.017000000,Units=km
new line.RML10199931 bus1=BBT1619205.1.3.0,bus2=RML210199931.1.3.0,Phases=2,Linecode=CABBTG05_4_2,Length=0.017000000,Units=km
new line.RML10200048 bus1=BBT1613843.2.3.0,bus2=RML210200048.2.3.0,Phases=2,Linecode=CABBTG05_4_2,Length=0.017000000,Units=km
new line.RML10200056 bus1=BBT1612009.2.3.0,bus2=RML210200056.2.3.0,Phases=2,Linecode=CABBTG05_4_2,Length=0.017000000,Units=km
new line.RML10200058 bus1=BBT148029494.2.3.0,bus2=RML210200058.2.3.0,Phases=2,Linecode=CABBTG05_4_2,Length=0.017000000,Units=km
new line.RML10200070 bus1=BBT4079523.2.3.0,bus2=RML210200070.2.3.0,Phases=2,Linecode=CABBTG05_4_2,Length=0.017000000,Units=km
new line.RML10200073 bus1=BBT65466090.2.3.0,bus2=RML210200073.2.3.0,Phases=2,Linecode=CABBTG05_4_2,Length=0.017000000,Units=km
new line.RML10113017 bus1=BBT1617476.1.2.0,bus2=RML210113017.1.2.0,Phases=2,Linecode=CABBTG05_4_2,Length=0.017000000,Units=km
new line.RML10116162 bus1=BBT148029515.1.2.3.0,bus2=RML210116162.1.2.3.0,Phases=3,Linecode=CABBTG06_4_3,Length=0.017000000,Units=km
new line.RML10116177 bus1=BBT148029494.1.2.0,bus2=RML210116177.1.2.0,Phases=2,Linecode=CABBTG05_4_2,Length=0.017000000,Units=km
new line.RML10116184 bus1=BBT148029510.2.3.0,bus2=RML210116184.2.3.0,Phases=2,Linecode=CABBTG05_4_2,Length=0.017000000,Units=km
new line.RML10116186 bus1=BBT148029508.1.2.0,bus2=RML210116186.1.2.0,Phases=2,Linecode=CABBTG05_4_2,Length=0.017000000,Units=km
new line.RML10116190 bus1=BBT148029507.1.2.0,bus2=RML210116190.1.2.0,Phases=2,Linecode=CABBTG05_4_2,Length=0.017000000,Units=km
new line.RML10116191 bus1=BBT148029559.1.3.0,bus2=RML210116191.1.3.0,Phases=2,Linecode=CABBTG05_4_2,Length=0.017000000,Units=km
new line.RML10116196 bus1=BBT148029654.1.2.0,bus2=RML210116196.1.2.0,Phases=2,Linecode=CABBTG05_4_2,Length=0.017000000,Units=km
new line.RML10116207 bus1=BBT148029536.1.2.0,bus2=RML210116207.1.2.0,Phases=2,Linecode=CABBTG05_4_2,Length=0.017000000,Units=km
new line.RML10116220 bus1=BBT148029506.1.2.0,bus2=RML210116220.1.2.0,Phases=2,Linecode=CABBTG05_4_2,Length=0.017000000,Units=km
new line.RML10116222 bus1=BBT148029489.1.2.0,bus2=RML210116222.1.2.0,Phases=2,Linecode=CABBTG05_4_2,Length=0.017000000,Units=km
new line.RML10116288 bus1=BBT65466062.1.0,bus2=RML210116288.1.0,Phases=1,Linecode=CABBTG02_4_1,Length=0.017000000,Units=km
new line.RML10116473 bus1=BBT148029560.1.2.0,bus2=RML210116473.1.2.0,Phases=2,Linecode=CABBTG05_4_2,Length=0.017000000,Units=km
new line.RML10119959 bus1=BBT148029510.1.3.0,bus2=RML210119959.1.3.0,Phases=2,Linecode=CABBTG05_4_2,Length=0.017000000,Units=km
new line.RML10120063 bus1=BBT1619065.2.3.0,bus2=RML210120063.2.3.0,Phases=2,Linecode=CABBTG05_4_2,Length=0.017000000,Units=km
new line.RML10120073 bus1=BBT1609202.2.0,bus2=RML210120073.2.0,Phases=1,Linecode=CABBTG02_4_1,Length=0.017000000,Units=km
new line.RML10120091 bus1=BBT1613388.1.2.0,bus2=RML210120091.1.2.0,Phases=2,Linecode=CABBTG05_4_2,Length=0.017000000,Units=km
new line.RML10120093 bus1=BBT2584197.1.2.0,bus2=RML210120093.1.2.0,Phases=2,Linecode=CABBTG05_4_2,Length=0.017000000,Units=km
new line.RML10298162 bus1=BBT1616027.1.2.0,bus2=RML210298162.1.2.0,Phases=2,Linecode=CABBTG05_4_2,Length=0.017000000,Units=km
new line.RML10298192 bus1=BBT4079740.1.2.0,bus2=RML210298192.1.2.0,Phases=2,Linecode=CABBTG05_4_2,Length=0.017000000,Units=km
new line.RML10298195 bus1=BBT2602551.1.0,bus2=RML210298195.1.0,Phases=1,Linecode=CABBTG02_4_1,Length=0.017000000,Units=km
new line.RML10298198 bus1=BBT2602551.2.0,bus2=RML210298198.2.0,Phases=1,Linecode=CABBTG02_4_1,Length=0.017000000,Units=km
new line.RML10298203 bus1=BBT1608824.1.0,bus2=RML210298203.1.0,Phases=1,Linecode=CABBTG02_4_1,Length=0.017000000,Units=km
new line.RML10298206 bus1=BBT1608824.2.0,bus2=RML210298206.2.0,Phases=1,Linecode=CABBTG02_4_1,Length=0.017000000,Units=km
new line.RML10298213 bus1=BBT1754396.3.0,bus2=RML210298213.3.0,Phases=1,Linecode=CABBTG02_4_1,Length=0.017000000,Units=km
new line.RML10298226 bus1=BBT148029536.2.3.0,bus2=RML210298226.2.3.0,Phases=2,Linecode=CABBTG05_4_2,Length=0.017000000,Units=km
new line.RML10298255 bus1=BBT148029630.1.2.0,bus2=RML210298255.1.2.0,Phases=2,Linecode=CABBTG05_4_2,Length=0.017000000,Units=km
new line.RML10300282 bus1=BBT1780821.1.2.0,bus2=RML210300282.1.2.0,Phases=2,Linecode=CABBTG05_4_2,Length=0.017000000,Units=km
new line.RML10300569 bus1=BBT148029536.1.2.0,bus2=RML210300569.1.2.0,Phases=2,Linecode=CABBTG05_4_2,Length=0.017000000,Units=km
new line.RML10300570 bus1=BBT1754396.1.2.0,bus2=RML210300570.1.2.0,Phases=2,Linecode=CABBTG05_4_2,Length=0.017000000,Units=km
new line.RML10300606 bus1=BBT4079922.1.2.3.0,bus2=RML210300606.1.2.3.0,Phases=3,Linecode=CABBTG06_4_3,Length=0.017000000,Units=km
new line.RML10300609 bus1=BBT148029631.1.2.0,bus2=RML210300609.1.2.0,Phases=2,Linecode=CABBTG05_4_2,Length=0.017000000,Units=km
new line.RML10300612 bus1=BBT148029544.1.3.0,bus2=RML210300612.1.3.0,Phases=2,Linecode=CABBTG05_4_2,Length=0.017000000,Units=km
new line.RML10300667 bus1=BBT148029656.1.2.3.0,bus2=RML210300667.1.2.3.0,Phases=3,Linecode=CABBTG06_4_3,Length=0.017000000,Units=km
new line.RML10300669 bus1=BBT148029573.1.2.0,bus2=RML210300669.1.2.0,Phases=2,Linecode=CABBTG05_4_2,Length=0.017000000,Units=km
new line.RML10300670 bus1=BBT148029630.1.2.3.0,bus2=RML210300670.1.2.3.0,Phases=3,Linecode=CABBTG06_4_3,Length=0.017000000,Units=km
new line.RML10300674 bus1=BBT145978144.1.3.0,bus2=RML210300674.1.3.0,Phases=2,Linecode=CABBTG05_4_2,Length=0.017000000,Units=km
new line.RML10300678 bus1=BBT148029667.2.3.0,bus2=RML210300678.2.3.0,Phases=2,Linecode=CABBTG05_4_2,Length=0.017000000,Units=km
new line.RML10092212 bus1=BBT1614207.1.0,bus2=RML210092212.1.0,Phases=1,Linecode=CABBTG02_4_1,Length=0.017000000,Units=km
new line.RML10093226 bus1=BBT1708721.1.2.0,bus2=RML210093226.1.2.0,Phases=2,Linecode=CABBTG05_4_2,Length=0.017000000,Units=km
new line.RML10096255 bus1=BBT2584624.1.2.0,bus2=RML210096255.1.2.0,Phases=2,Linecode=CABBTG05_4_2,Length=0.017000000,Units=km
new line.RML10096585 bus1=BBT72522685.1.2.0,bus2=RML210096585.1.2.0,Phases=2,Linecode=CABBTG05_4_2,Length=0.017000000,Units=km
new line.RML10097325 bus1=BBT10650997.2.0,bus2=RML210097325.2.0,Phases=1,Linecode=CABBTG01_4_1,Length=0.017000000,Units=km
new line.RML10211989 bus1=BBT4079656.1.2.3.0,bus2=RML210211989.1.2.3.0,Phases=3,Linecode=CABBTG06_4_3,Length=0.017000000,Units=km
new line.RML10211995 bus1=BBT4079516.1.2.0,bus2=RML210211995.1.2.0,Phases=2,Linecode=CABBTG05_4_2,Length=0.017000000,Units=km
new line.RML10212006 bus1=BBT1609062.2.3.0,bus2=RML210212006.2.3.0,Phases=2,Linecode=CABBTG05_4_2,Length=0.017000000,Units=km
new line.RML10212007 bus1=BBT3127229.3.0,bus2=RML210212007.3.0,Phases=1,Linecode=CABBTG02_4_1,Length=0.017000000,Units=km
new line.RML10212011 bus1=BBT2584232.1.2.0,bus2=RML210212011.1.2.0,Phases=2,Linecode=CABBTG05_4_2,Length=0.017000000,Units=km
new line.RML10212014 bus1=BBT1617084.2.3.0,bus2=RML210212014.2.3.0,Phases=2,Linecode=CABBTG05_4_2,Length=0.017000000,Units=km
new line.RML10212033 bus1=BBT148029536.2.3.0,bus2=RML210212033.2.3.0,Phases=2,Linecode=CABBTG05_4_2,Length=0.017000000,Units=km
new line.RML10212113 bus1=BBT1609258.1.0,bus2=RML210212113.1.0,Phases=1,Linecode=CABBTG02_4_1,Length=0.017000000,Units=km
new line.RML10212116 bus1=BBT1754396.1.0,bus2=RML210212116.1.0,Phases=1,Linecode=CABBTG02_4_1,Length=0.017000000,Units=km
new line.RML10212235 bus1=BBT1784293.2.3.0,bus2=RML210212235.2.3.0,Phases=2,Linecode=CABBTG05_4_2,Length=0.017000000,Units=km
new line.RML10212239 bus1=BBT65465278.2.0,bus2=RML210212239.2.0,Phases=1,Linecode=CABBTG02_4_1,Length=0.017000000,Units=km
new line.RML10212242 bus1=BBT65465285.1.0,bus2=RML210212242.1.0,Phases=1,Linecode=CABBTG02_4_1,Length=0.017000000,Units=km
new line.RML10212292 bus1=BBT1619282.1.2.0,bus2=RML210212292.1.2.0,Phases=2,Linecode=CABBTG05_4_2,Length=0.017000000,Units=km
new line.RML10212296 bus1=BBT145975442.1.0,bus2=RML210212296.1.0,Phases=1,Linecode=CABBTG02_4_1,Length=0.017000000,Units=km
new line.RML10212702 bus1=BBT150444621.1.2.0,bus2=RML210212702.1.2.0,Phases=2,Linecode=CABBTG05_4_2,Length=0.017000000,Units=km
new line.RML10212866 bus1=BBT2584113.1.3.0,bus2=RML210212866.1.3.0,Phases=2,Linecode=CABBTG04_4_2,Length=0.017000000,Units=km
new line.RML10216188 bus1=BBT65465271.1.0,bus2=RML210216188.1.0,Phases=1,Linecode=CABBTG02_4_1,Length=0.017000000,Units=km
new line.RML10294228 bus1=BBT65465278.1.0,bus2=RML210294228.1.0,Phases=1,Linecode=CABBTG02_4_1,Length=0.017000000,Units=km
new line.RML10294233 bus1=BBT4407753.1.2.0,bus2=RML210294233.1.2.0,Phases=2,Linecode=CABBTG05_4_2,Length=0.017000000,Units=km
new line.RML10294239 bus1=BBT147031644.1.0,bus2=RML210294239.1.0,Phases=1,Linecode=CABBTG02_4_1,Length=0.017000000,Units=km
new line.RML10294245 bus1=BBT1784223.1.0,bus2=RML210294245.1.0,Phases=1,Linecode=CABBTG02_4_1,Length=0.017000000,Units=km
new line.RML10294277 bus1=BBT65465271.1.3.0,bus2=RML210294277.1.3.0,Phases=2,Linecode=CABBTG05_4_2,Length=0.017000000,Units=km
new line.RML10294297 bus1=BBT1609020.1.2.3.0,bus2=RML210294297.1.2.3.0,Phases=3,Linecode=CABBTG07_4_3,Length=0.017000000,Units=km
new line.RML10294317 bus1=BBT2584127.3.0,bus2=RML210294317.3.0,Phases=1,Linecode=CABBTG02_4_1,Length=0.017000000,Units=km
new line.RML10295704 bus1=BBT1609202.1.0,bus2=RML210295704.1.0,Phases=1,Linecode=CABBTG02_4_1,Length=0.017000000,Units=km
new line.RML10295764 bus1=BBT1613486.1.2.0,bus2=RML210295764.1.2.0,Phases=2,Linecode=CABBTG05_4_2,Length=0.017000000,Units=km
new line.RML10295911 bus1=BBT1623426.2.0,bus2=RML210295911.2.0,Phases=1,Linecode=CABBTG02_4_1,Length=0.017000000,Units=km
new line.RML10296047 bus1=BBT1618295.1.2.3.0,bus2=RML210296047.1.2.3.0,Phases=3,Linecode=CABBTG06_4_3,Length=0.017000000,Units=km
new line.RML10296182 bus1=BBT1619135.2.3.0,bus2=RML210296182.2.3.0,Phases=2,Linecode=CABBTG05_4_2,Length=0.017000000,Units=km
new line.RML10296563 bus1=BBT3018960.2.0,bus2=RML210296563.2.0,Phases=1,Linecode=CABBTG02_4_1,Length=0.017000000,Units=km
new line.RML10296565 bus1=BBT3018932.2.0,bus2=RML210296565.2.0,Phases=1,Linecode=CABBTG02_4_1,Length=0.017000000,Units=km
new line.RML10296647 bus1=BBT148029494.1.2.0,bus2=RML210296647.1.2.0,Phases=2,Linecode=CABBTG05_4_2,Length=0.017000000,Units=km
new line.RML10297051 bus1=BBT1620668.1.0,bus2=RML210297051.1.0,Phases=1,Linecode=CABBTG02_4_1,Length=0.017000000,Units=km
new line.RML10084833 bus1=BBT1620290.1.2.0,bus2=RML210084833.1.2.0,Phases=2,Linecode=CABBTG05_4_2,Length=0.017000000,Units=km
new line.RML10144573 bus1=BBT65465271.1.0,bus2=RML210144573.1.0,Phases=1,Linecode=CABBTG02_4_1,Length=0.017000000,Units=km
new line.RML10144576 bus1=BBT1614480.2.0,bus2=RML210144576.2.0,Phases=1,Linecode=CABBTG02_4_1,Length=0.017000000,Units=km
new line.RML10148614 bus1=BBT1610497.1.2.0,bus2=RML210148614.1.2.0,Phases=2,Linecode=CABBTG05_4_2,Length=0.017000000,Units=km
new line.RML10148617 bus1=BBT1609286.2.3.0,bus2=RML210148617.2.3.0,Phases=2,Linecode=CABBTG05_4_2,Length=0.017000000,Units=km
new line.RML10148621 bus1=BBT1609055.3.0,bus2=RML210148621.3.0,Phases=1,Linecode=CABBTG02_4_1,Length=0.017000000,Units=km
new line.RML10148629 bus1=BBT1610175.1.0,bus2=RML210148629.1.0,Phases=1,Linecode=CABBTG02_4_1,Length=0.017000000,Units=km
new line.RML10205054 bus1=BBT1623006.1.2.0,bus2=RML210205054.1.2.0,Phases=2,Linecode=CABBTG05_4_2,Length=0.017000000,Units=km
new line.RML10205617 bus1=BBT1610840.1.2.3.0,bus2=RML210205617.1.2.3.0,Phases=3,Linecode=CABBTG06_4_3,Length=0.017000000,Units=km
new line.RML10205695 bus1=BBT2584911.1.2.0,bus2=RML210205695.1.2.0,Phases=2,Linecode=CABBTG05_4_2,Length=0.017000000,Units=km
new line.RML10205738 bus1=BBT3053526.2.0,bus2=RML210205738.2.0,Phases=1,Linecode=CABBTG02_4_1,Length=0.017000000,Units=km
new line.RML10205741 bus1=BBT3053526.2.0,bus2=RML210205741.2.0,Phases=1,Linecode=CABBTG02_4_1,Length=0.017000000,Units=km
new line.RML10205742 bus1=BBT3053526.3.0,bus2=RML210205742.3.0,Phases=1,Linecode=CABBTG02_4_1,Length=0.017000000,Units=km
new line.RML10205757 bus1=BBT1609223.3.0,bus2=RML210205757.3.0,Phases=1,Linecode=CABBTG02_4_1,Length=0.017000000,Units=km
new line.RML10205772 bus1=BBT1751190.1.2.3.0,bus2=RML210205772.1.2.3.0,Phases=3,Linecode=CABBTG06_4_3,Length=0.017000000,Units=km
new line.RML10205856 bus1=BBT1609216.3.0,bus2=RML210205856.3.0,Phases=1,Linecode=CABBTG02_4_1,Length=0.017000000,Units=km
new line.RML10205861 bus1=BBT65465271.1.0,bus2=RML210205861.1.0,Phases=1,Linecode=CABBTG02_4_1,Length=0.017000000,Units=km
new line.RML10205971 bus1=BBT1784230.1.3.0,bus2=RML210205971.1.3.0,Phases=2,Linecode=CABBTG05_4_2,Length=0.017000000,Units=km
new line.RML10206016 bus1=BBT1610532.1.2.0,bus2=RML210206016.1.2.0,Phases=2,Linecode=CABBTG05_4_2,Length=0.017000000,Units=km
new line.RML10206031 bus1=BBT65465271.3.0,bus2=RML210206031.3.0,Phases=1,Linecode=CABBTG02_4_1,Length=0.017000000,Units=km
new line.RML10206041 bus1=BBT1609195.3.0,bus2=RML210206041.3.0,Phases=1,Linecode=CABBTG02_4_1,Length=0.017000000,Units=km
new line.RML10206062 bus1=BBT1609286.1.3.0,bus2=RML210206062.1.3.0,Phases=2,Linecode=CABBTG05_4_2,Length=0.017000000,Units=km
new line.RML10206100 bus1=BBT4628288.1.2.0,bus2=RML210206100.1.2.0,Phases=2,Linecode=CABBTG05_4_2,Length=0.017000000,Units=km
new line.RML10206119 bus1=BBT2892239.1.2.0,bus2=RML210206119.1.2.0,Phases=2,Linecode=CABBTG05_4_2,Length=0.017000000,Units=km
new line.RML10207171 bus1=BBT148704492.1.2.3.0,bus2=RML210207171.1.2.3.0,Phases=3,Linecode=CABBTG06_4_3,Length=0.017000000,Units=km
new line.RML10207174 bus1=BBT3007060.1.2.0,bus2=RML210207174.1.2.0,Phases=2,Linecode=CABBTG05_4_2,Length=0.017000000,Units=km
new line.RML10207191 bus1=BBT1609188.2.3.0,bus2=RML210207191.2.3.0,Phases=2,Linecode=CABBTG05_4_2,Length=0.017000000,Units=km
new line.RML10207200 bus1=BBT1611036.1.3.0,bus2=RML210207200.1.3.0,Phases=2,Linecode=CABBTG05_4_2,Length=0.017000000,Units=km
new line.RML10207217 bus1=BBT65465271.2.0,bus2=RML210207217.2.0,Phases=1,Linecode=CABBTG02_4_1,Length=0.017000000,Units=km
new line.RML10207224 bus1=BBT1773849.1.2.3.0,bus2=RML210207224.1.2.3.0,Phases=3,Linecode=CABBTG06_4_3,Length=0.017000000,Units=km
new line.RML10207242 bus1=BBT2892211.2.0,bus2=RML210207242.2.0,Phases=1,Linecode=CABBTG02_4_1,Length=0.017000000,Units=km
new line.RML10266486 bus1=BBT1614186.1.0,bus2=RML210266486.1.0,Phases=1,Linecode=CABBTG02_4_1,Length=0.017000000,Units=km
new line.RML10266488 bus1=BBT1612639.1.0,bus2=RML210266488.1.0,Phases=1,Linecode=CABBTG02_4_1,Length=0.017000000,Units=km
new line.RML10266494 bus1=BBT65465271.2.0,bus2=RML210266494.2.0,Phases=1,Linecode=CABBTG02_4_1,Length=0.017000000,Units=km
new line.RML10320203 bus1=BBT1615880.1.2.0,bus2=RML210320203.1.2.0,Phases=2,Linecode=CABBTG05_4_2,Length=0.017000000,Units=km
new line.RML10320205 bus1=BBT1620703.1.3.0,bus2=RML210320205.1.3.0,Phases=2,Linecode=CABBTG05_4_2,Length=0.017000000,Units=km
new line.RML10320220 bus1=BBT65465271.2.0,bus2=RML210320220.2.0,Phases=1,Linecode=CABBTG02_4_1,Length=0.017000000,Units=km
new line.RML10320224 bus1=BBT1754396.2.0,bus2=RML210320224.2.0,Phases=1,Linecode=CABBTG02_4_1,Length=0.017000000,Units=km
new line.RML10200084 bus1=BBT1610385.2.3.0,bus2=RML210200084.2.3.0,Phases=2,Linecode=CABBTG05_4_2,Length=0.017000000,Units=km
new line.RML10200087 bus1=BBT1609258.1.2.0,bus2=RML210200087.1.2.0,Phases=2,Linecode=CABBTG05_4_2,Length=0.017000000,Units=km
new line.RML10200122 bus1=BBT3545983.1.2.0,bus2=RML210200122.1.2.0,Phases=2,Linecode=CABBTG05_4_2,Length=0.017000000,Units=km
new line.RML10200125 bus1=BBT1608831.1.2.0,bus2=RML210200125.1.2.0,Phases=2,Linecode=CABBTG05_4_2,Length=0.017000000,Units=km
new line.RML10200127 bus1=BBT148029507.1.2.0,bus2=RML210200127.1.2.0,Phases=2,Linecode=CABBTG05_4_2,Length=0.017000000,Units=km
new line.RML10200131 bus1=BBT1610238.1.2.0,bus2=RML210200131.1.2.0,Phases=2,Linecode=CABBTG05_4_2,Length=0.017000000,Units=km
new line.RML10200134 bus1=BBT1611589.1.2.0,bus2=RML210200134.1.2.0,Phases=2,Linecode=CABBTG05_4_2,Length=0.017000000,Units=km
new line.RML10200136 bus1=BBT1617476.1.2.0,bus2=RML210200136.1.2.0,Phases=2,Linecode=CABBTG05_4_2,Length=0.017000000,Units=km
new line.RML10200142 bus1=BBT148029510.1.2.0,bus2=RML210200142.1.2.0,Phases=2,Linecode=CABBTG05_4_2,Length=0.017000000,Units=km
new line.RML10200151 bus1=BBT1610777.1.2.0,bus2=RML210200151.1.2.0,Phases=2,Linecode=CABBTG05_4_2,Length=0.017000000,Units=km
new line.RML10200153 bus1=BBT4079656.1.2.0,bus2=RML210200153.1.2.0,Phases=2,Linecode=CABBTG05_4_2,Length=0.017000000,Units=km
new line.RML10200162 bus1=BBT1754396.1.2.0,bus2=RML210200162.1.2.0,Phases=2,Linecode=CABBTG05_4_2,Length=0.017000000,Units=km
new line.RML10200163 bus1=BBT1608922.1.2.0,bus2=RML210200163.1.2.0,Phases=2,Linecode=CABBTG05_4_2,Length=0.017000000,Units=km
new line.RML10200200 bus1=BBT148029494.1.2.0,bus2=RML210200200.1.2.0,Phases=2,Linecode=CABBTG05_4_2,Length=0.017000000,Units=km
new line.RML10200203 bus1=BBT148029494.2.3.0,bus2=RML210200203.2.3.0,Phases=2,Linecode=CABBTG05_4_2,Length=0.017000000,Units=km
new line.RML10356330 bus1=BBT1622481.1.2.3.0,bus2=RML210356330.1.2.3.0,Phases=3,Linecode=CABBTG07_4_3,Length=0.017000000,Units=km
new line.RML10359551 bus1=BBT145985053.2.0,bus2=RML210359551.2.0,Phases=1,Linecode=CABBTG02_4_1,Length=0.017000000,Units=km
new line.RML10362458 bus1=BBT145980202.1.2.0,bus2=RML210362458.1.2.0,Phases=2,Linecode=CABBTG04_4_2,Length=0.017000000,Units=km
new line.RML10363084 bus1=BBT145981952.1.0,bus2=RML210363084.1.0,Phases=1,Linecode=CABBTG02_4_1,Length=0.017000000,Units=km
new line.RML10363109 bus1=BBT145981952.1.2.0,bus2=RML210363109.1.2.0,Phases=2,Linecode=CABBTG05_4_2,Length=0.017000000,Units=km
new line.RML10423667 bus1=BBT2892246.1.2.0,bus2=RML210423667.1.2.0,Phases=2,Linecode=CABBTG05_4_2,Length=0.017000000,Units=km
new line.RML10423670 bus1=BBT2892246.1.0,bus2=RML210423670.1.0,Phases=1,Linecode=CABBTG02_4_1,Length=0.017000000,Units=km
new line.RML10423690 bus1=BBT145979516.1.2.0,bus2=RML210423690.1.2.0,Phases=2,Linecode=CABBTG13_4_2,Length=0.017000000,Units=km
new line.RML10423693 bus1=BBT1609482.1.2.0,bus2=RML210423693.1.2.0,Phases=2,Linecode=CABBTG05_4_2,Length=0.017000000,Units=km
new line.RML10423707 bus1=BBT1618540.1.3.0,bus2=RML210423707.1.3.0,Phases=2,Linecode=CABBTG05_4_2,Length=0.017000000,Units=km
new line.RML10423957 bus1=BBT1609482.2.3.0,bus2=RML210423957.2.3.0,Phases=2,Linecode=CABBTG05_4_2,Length=0.017000000,Units=km
new line.RML10423961 bus1=BBT1609482.3.0,bus2=RML210423961.3.0,Phases=1,Linecode=CABBTG02_4_1,Length=0.017000000,Units=km
new line.RML10423966 bus1=BBT1609482.1.2.0,bus2=RML210423966.1.2.0,Phases=2,Linecode=CABBTG05_4_2,Length=0.017000000,Units=km
new line.RML10423975 bus1=BBT145977409.1.2.0,bus2=RML210423975.1.2.0,Phases=2,Linecode=CABBTG05_4_2,Length=0.017000000,Units=km
new line.RML10423992 bus1=BBT1609489.1.2.0,bus2=RML210423992.1.2.0,Phases=2,Linecode=CABBTG05_4_2,Length=0.017000000,Units=km
new line.RML10423994 bus1=BBT145982141.1.2.0,bus2=RML210423994.1.2.0,Phases=2,Linecode=CABBTG05_4_2,Length=0.017000000,Units=km
new line.RML10424014 bus1=BBT148029630.1.2.0,bus2=RML210424014.1.2.0,Phases=2,Linecode=CABBTG04_4_2,Length=0.017000000,Units=km
new line.RML10424053 bus1=BBT148029506.1.3.0,bus2=RML210424053.1.3.0,Phases=2,Linecode=CABBTG04_4_2,Length=0.017000000,Units=km
new line.RML10424064 bus1=BBT1617091.1.3.0,bus2=RML210424064.1.3.0,Phases=2,Linecode=CABBTG04_4_2,Length=0.017000000,Units=km
new line.RML10424814 bus1=BBT152235241.1.2.0,bus2=RML210424814.1.2.0,Phases=2,Linecode=CABBTG04_4_2,Length=0.017000000,Units=km
new line.RML10426365 bus1=BBT145979516.1.3.0,bus2=RML210426365.1.3.0,Phases=2,Linecode=CABBTG05_4_2,Length=0.017000000,Units=km
new line.RML10426671 bus1=BBT1618267.1.2.3.0,bus2=RML210426671.1.2.3.0,Phases=3,Linecode=CABBTG06_4_3,Length=0.017000000,Units=km
new line.RML10426674 bus1=BBT148029573.1.2.0,bus2=RML210426674.1.2.0,Phases=2,Linecode=CABBTG05_4_2,Length=0.017000000,Units=km
new line.RML10047331 bus1=BBT4080125.2.3.0,bus2=RML210047331.2.3.0,Phases=2,Linecode=CABBTG05_4_2,Length=0.017000000,Units=km
new line.RML10047334 bus1=BBT1610588.3.0,bus2=RML210047334.3.0,Phases=1,Linecode=CABBTG02_4_1,Length=0.017000000,Units=km
new line.RML10047362 bus1=BBT1754396.2.0,bus2=RML210047362.2.0,Phases=1,Linecode=CABBTG02_4_1,Length=0.017000000,Units=km
new line.RML10047365 bus1=BBT1609202.3.0,bus2=RML210047365.3.0,Phases=1,Linecode=CABBTG02_4_1,Length=0.017000000,Units=km
new line.RML10047367 bus1=BBT1609223.3.0,bus2=RML210047367.3.0,Phases=1,Linecode=CABBTG01_4_1,Length=0.017000000,Units=km
new line.RML10047418 bus1=BBT1609216.1.2.0,bus2=RML210047418.1.2.0,Phases=2,Linecode=CABBTG05_4_2,Length=0.017000000,Units=km
new line.RML10047430 bus1=BBT1609216.1.2.0,bus2=RML210047430.1.2.0,Phases=2,Linecode=CABBTG05_4_2,Length=0.017000000,Units=km
new line.RML10048331 bus1=BBT1619744.1.3.0,bus2=RML210048331.1.3.0,Phases=2,Linecode=CABBTG13_4_2,Length=0.017000000,Units=km
new line.RML10048338 bus1=BBT1765694.1.2.3.0,bus2=RML210048338.1.2.3.0,Phases=3,Linecode=CABBTG06_4_3,Length=0.017000000,Units=km
new line.RML10105639 bus1=BBT1754396.2.0,bus2=RML210105639.2.0,Phases=1,Linecode=CABBTG02_4_1,Length=0.017000000,Units=km
new line.RML10106089 bus1=BBT1612170.1.2.0,bus2=RML210106089.1.2.0,Phases=2,Linecode=CABBTG04_4_2,Length=0.017000000,Units=km
new line.RML10107643 bus1=BBT1624385.1.2.3.0,bus2=RML210107643.1.2.3.0,Phases=3,Linecode=CABBTG06_4_3,Length=0.017000000,Units=km
new line.RML10110600 bus1=BBT1609202.3.0,bus2=RML210110600.3.0,Phases=1,Linecode=CABBTG02_4_1,Length=0.017000000,Units=km
new line.RML10112652 bus1=BBT1742720.1.2.0,bus2=RML210112652.1.2.0,Phases=2,Linecode=CABBTG04_4_2,Length=0.017000000,Units=km
new line.RML10192028 bus1=BBT2584953.2.3.0,bus2=RML210192028.2.3.0,Phases=2,Linecode=CABBTG05_4_2,Length=0.017000000,Units=km
new line.RML10192061 bus1=BBT1615726.1.2.3.0,bus2=RML210192061.1.2.3.0,Phases=3,Linecode=CABBTG06_4_3,Length=0.017000000,Units=km
new line.RML10192064 bus1=BBT1624399.1.2.3.0,bus2=RML210192064.1.2.3.0,Phases=3,Linecode=CABBTG07_4_3,Length=0.017000000,Units=km
new line.RML10192122 bus1=BBT145981518.1.2.0,bus2=RML210192122.1.2.0,Phases=2,Linecode=CABBTG05_4_2,Length=0.017000000,Units=km
new line.RML10258741 bus1=BBT1706719.1.0,bus2=RML210258741.1.0,Phases=1,Linecode=CABBTG02_4_1,Length=0.017000000,Units=km
new line.RML10258782 bus1=BBT1784286.1.3.0,bus2=RML210258782.1.3.0,Phases=2,Linecode=CABBTG05_4_2,Length=0.017000000,Units=km
new line.RML10258886 bus1=BBT147031644.2.3.0,bus2=RML210258886.2.3.0,Phases=2,Linecode=CABBTG05_4_2,Length=0.017000000,Units=km
new line.RML10258893 bus1=BBT1611386.1.2.0,bus2=RML210258893.1.2.0,Phases=2,Linecode=CABBTG05_4_2,Length=0.017000000,Units=km
new line.RML10313059 bus1=BBT140274509.1.2.3.0,bus2=RML210313059.1.2.3.0,Phases=3,Linecode=CABBTG08_4_3,Length=0.017000000,Units=km
new line.RML10313074 bus1=BBT140274502.1.2.3.0,bus2=RML210313074.1.2.3.0,Phases=3,Linecode=CABBTG08_4_3,Length=0.017000000,Units=km
new line.RML10313077 bus1=BBT140274509.1.2.3.0,bus2=RML210313077.1.2.3.0,Phases=3,Linecode=CABBTG08_4_3,Length=0.017000000,Units=km
new line.RML10371235 bus1=BBT145984360.1.2.0,bus2=RML210371235.1.2.0,Phases=2,Linecode=CABBTG05_4_2,Length=0.017000000,Units=km
new line.RML10371238 bus1=BBT145979516.2.0,bus2=RML210371238.2.0,Phases=1,Linecode=CABBTG02_4_1,Length=0.017000000,Units=km
new line.RML10373220 bus1=BBT1608971.1.2.3.0,bus2=RML210373220.1.2.3.0,Phases=3,Linecode=CABBTG11_4_3,Length=0.017000000,Units=km
new line.RML10373222 bus1=BBT1610630.1.2.3.0,bus2=RML210373222.1.2.3.0,Phases=3,Linecode=CABBTG11_4_3,Length=0.017000000,Units=km
new line.RML10373231 bus1=BBT1612898.1.2.3.0,bus2=RML210373231.1.2.3.0,Phases=3,Linecode=CABBTG11_4_3,Length=0.017000000,Units=km
new line.RML10375195 bus1=BBT145985053.1.2.3.0,bus2=RML210375195.1.2.3.0,Phases=3,Linecode=CABBTG07_4_3,Length=0.017000000,Units=km
new line.RML10375263 bus1=BBT145982141.1.2.0,bus2=RML210375263.1.2.0,Phases=2,Linecode=CABBTG05_4_2,Length=0.017000000,Units=km
new line.RML10376921 bus1=BBT147031497.1.2.0,bus2=RML210376921.1.2.0,Phases=2,Linecode=CABBTG05_4_2,Length=0.017000000,Units=km
new line.RML10378287 bus1=BBT145979516.1.2.0,bus2=RML210378287.1.2.0,Phases=2,Linecode=CABBTG05_4_2,Length=0.017000000,Units=km
new line.RML10378292 bus1=BBT145975442.1.2.0,bus2=RML210378292.1.2.0,Phases=2,Linecode=CABBTG05_4_2,Length=0.017000000,Units=km
new line.RML10433497 bus1=BBT1619072.1.2.0,bus2=RML210433497.1.2.0,Phases=2,Linecode=CABBTG05_4_2,Length=0.017000000,Units=km
new line.RML10434596 bus1=BBT145979915.1.2.0,bus2=RML210434596.1.2.0,Phases=2,Linecode=CABBTG04_4_2,Length=0.017000000,Units=km
new line.RML10435473 bus1=BBT1612968.2.0,bus2=RML210435473.2.0,Phases=1,Linecode=CABBTG02_4_1,Length=0.017000000,Units=km
new line.RML10040207 bus1=BBT148240206.1.2.3.0,bus2=RML210040207.1.2.3.0,Phases=3,Linecode=CABBTG06_4_3,Length=0.017000000,Units=km
new line.RML10098372 bus1=BBT1614935.1.0,bus2=RML210098372.1.0,Phases=1,Linecode=CABBTG01_4_1,Length=0.017000000,Units=km
new line.RML10098673 bus1=BBT65466076.2.0,bus2=RML210098673.2.0,Phases=1,Linecode=CABBTG01_4_1,Length=0.017000000,Units=km
new line.RML10098680 bus1=BBT1754396.1.0,bus2=RML210098680.1.0,Phases=1,Linecode=CABBTG01_4_1,Length=0.017000000,Units=km
new line.RML10098814 bus1=BBT1624427.1.2.0,bus2=RML210098814.1.2.0,Phases=2,Linecode=CABBTG05_4_2,Length=0.017000000,Units=km
new line.RML10100411 bus1=BBT1784223.1.2.0,bus2=RML210100411.1.2.0,Phases=2,Linecode=CABBTG05_4_2,Length=0.017000000,Units=km
new line.RML10101864 bus1=BBT1613605.1.2.0,bus2=RML210101864.1.2.0,Phases=2,Linecode=CABBTG05_4_2,Length=0.017000000,Units=km
new line.RML10102356 bus1=BBT1609244.1.0,bus2=RML210102356.1.0,Phases=1,Linecode=CABBTG02_4_1,Length=0.017000000,Units=km