new load.3009004249M1 bus1=BMT119813383.1.2.3.0,Phases=3,kv=13.8,kW=13.8737,pf=0.92,Vminpu=0.93,Vmaxpu=1.5,model=1,daily=A4-1,status=variable
new load.3009012608M1 bus1=BMT119814902.1.2.3.0,Phases=3,kv=13.8,kW=4.41548,pf=0.92,Vminpu=0.93,Vmaxpu=1.5,model=1,daily=A4-2,status=variable
new load.3009013338M1 bus1=BMT119816057.1.2.3.0,Phases=3,kv=13.8,kW=25.88388,pf=0.92,Vminpu=0.93,Vmaxpu=1.5,model=1,daily=A4-3,status=variable
new load.3009013530M1 bus1=BMT156356252.1.2.3.0,Phases=3,kv=13.8,kW=13.21354,pf=0.92,Vminpu=0.93,Vmaxpu=1.5,model=1,daily=A4-3,status=variable
new load.3009014034M1 bus1=BMT119817128.1.2.3.0,Phases=3,kv=13.8,kW=64.48334,pf=0.92,Vminpu=0.93,Vmaxpu=1.5,model=1,daily=A4-4,status=variable
new load.3009014150M1 bus1=BMT119815700.1.2.3.0,Phases=3,kv=13.8,kW=23.5492,pf=0.92,Vminpu=0.93,Vmaxpu=1.5,model=1,daily=A4-2,status=variable
new load.3009016163M1 bus1=BMT119819144.1.2.3.0,Phases=3,kv=13.8,kW=97.51598,pf=0.92,Vminpu=0.93,Vmaxpu=1.5,model=1,daily=A4-3,status=variable
new load.3009017529M1 bus1=BMT119815287.1.2.3.0,Phases=3,kv=13.8,kW=91.0665,pf=0.92,Vminpu=0.93,Vmaxpu=1.5,model=1,daily=A4-3,status=variable
new load.3009017939M1 bus1=BMT119819186.1.2.3.0,Phases=3,kv=13.8,kW=56.79832,pf=0.92,Vminpu=0.93,Vmaxpu=1.5,model=1,daily=A4-6,status=variable
new load.3009018674M1 bus1=BMT119812256.1.2.3.0,Phases=3,kv=13.8,kW=4.31918,pf=0.92,Vminpu=0.93,Vmaxpu=1.5,model=1,daily=A4-1,status=variable
new load.3009019486M1 bus1=BMT119819158.1.2.3.0,Phases=3,kv=13.8,kW=23.1321,pf=0.92,Vminpu=0.93,Vmaxpu=1.5,model=1,daily=A4-3,status=variable
new load.3009020529M1 bus1=BMT119817485.1.2.3.0,Phases=3,kv=13.8,kW=68.71508,pf=0.92,Vminpu=0.93,Vmaxpu=1.5,model=1,daily=A4-4,status=variable
new load.3009022307M1 bus1=BMT119812998.1.2.3.0,Phases=3,kv=13.8,kW=32.9321,pf=0.92,Vminpu=0.93,Vmaxpu=1.5,model=1,daily=A4-2,status=variable
new load.3010248644M1 bus1=BMT165642072.1.2.3.0,Phases=3,kv=13.8,kW=2.61768,pf=0.92,Vminpu=0.93,Vmaxpu=1.5,model=1,daily=A4-1,status=variable
new load.3010599196M1 bus1=BMT170081611.1.2.3.0,Phases=3,kv=13.8,kW=10.66312,pf=0.92,Vminpu=0.93,Vmaxpu=1.5,model=1,daily=A4-3,status=variable
new load.3010852459M1 bus1=BMT170078375.1.2.3.0,Phases=3,kv=13.8,kW=2153.79908,pf=0.92,Vminpu=0.93,Vmaxpu=1.5,model=1,daily=A4-7,status=variable
new load.3011548561M1 bus1=BMT136914089.1.2.3.0,Phases=3,kv=13.8,kW=105.34644,pf=0.92,Vminpu=0.93,Vmaxpu=1.5,model=1,daily=A4-6,status=variable
