! manter este comentario para compatibilidade do C#
new circuit.alimCOJ08 bus1=BMT162756154.1.2.3,basekv=13.800000000,pu=1.040000000

