new line.1562392 bus1=BBT1692228.1.2.0,bus2=BBT1692235.1.2.0,Phases=2,Linecode=BT304_BT304_7_2_1,Length=0.000510000,Units=km
new line.1562399 bus1=BBT1692256.1.2.0,bus2=BBT1692263.1.2.0,Phases=2,Linecode=BT304_BT304_7_2_1,Length=0.000510000,Units=km
new line.1562469 bus1=BBT1692333.1.2.0,bus2=BBT1692340.1.2.0,Phases=2,Linecode=BT308_BT308_7_2_1,Length=0.000510000,Units=km
new line.1763572 bus1=BBT1895032.1.2.0,bus2=BBT1895025.1.2.0,Phases=2,Linecode=BT108_BT107_7_2_1,Length=0.033250000,Units=km
new line.1763579 bus1=BBT1895039.1.2.0,bus2=BBT1895032.1.2.0,Phases=2,Linecode=BT108_BT107_7_2_1,Length=0.034190000,Units=km
new line.1763586 bus1=BBT1895018.1.2.0,bus2=BBT2711512.1.2.0,Phases=2,Linecode=BT521_BT521_7_2_1,Length=0.000510000,Units=km
new line.1763593 bus1=BBT1895060.1.2.0,bus2=BBT1895039.1.2.0,Phases=2,Linecode=BT108_BT107_7_2_1,Length=0.037170000,Units=km
new line.1763600 bus1=BBT1895046.1.2.0,bus2=BBT1895053.1.2.0,Phases=2,Linecode=BT108_BT107_7_2_1,Length=0.030090000,Units=km
new line.1763607 bus1=BBT1895060.1.2.0,bus2=BBT1895046.1.2.0,Phases=2,Linecode=BT108_BT107_7_2_1,Length=0.031400000,Units=km
new line.1763614 bus1=BBT1895060.1.2.0,bus2=BBT1895067.1.2.0,Phases=2,Linecode=BT107_BT107_7_2_1,Length=0.036410000,Units=km
new line.1763621 bus1=BBT2711512.1.2.0,bus2=BBT1895060.1.2.0,Phases=2,Linecode=BT807_BT807_4_2_3,Length=0.034800000,Units=km
new line.1763628 bus1=BBT1895067.1.2.0,bus2=BBT1895074.1.2.0,Phases=2,Linecode=BT107_BT107_7_2_1,Length=0.028470000,Units=km
new line.1872786 bus1=BBT2023391.1.2.0,bus2=BBT148489192.1.2.0,Phases=2,Linecode=BT108_BT108_7_2_1,Length=0.028660000,Units=km
new line.1872793 bus1=BBT2023328.1.2.0,bus2=BBT2023391.1.2.0,Phases=2,Linecode=BT521_BT521_7_2_1,Length=0.000510000,Units=km
new line.1872828 bus1=BBT2023426.1.2.0,bus2=BBT2023454.1.2.0,Phases=2,Linecode=BT106_BT106_7_2_1,Length=0.029420000,Units=km
new line.1872835 bus1=BBT2023440.1.2.3.0,bus2=BBT2023433.1.2.3.0,Phases=3,Linecode=BT108_BT107_7_3_1,Length=0.030090000,Units=km
new line.1872842 bus1=BBT2023447.1.2.3.0,bus2=BBT2023440.1.2.3.0,Phases=3,Linecode=BT108_BT107_7_3_1,Length=0.035010000,Units=km
new line.1872849 bus1=BBT2023419.1.2.3.0,bus2=BBT2023461.1.2.3.0,Phases=3,Linecode=BT521_BT521_7_3_1,Length=0.000510000,Units=km
new line.1872856 bus1=BBT2023461.1.2.3.0,bus2=BBT2023475.1.2.3.0,Phases=3,Linecode=BT108_BT107_7_3_1,Length=0.038030000,Units=km
new line.1872863 bus1=BBT2023461.1.2.3.0,bus2=BBT2023517.1.2.3.0,Phases=3,Linecode=BT108_BT107_7_3_1,Length=0.029170000,Units=km
new line.1872870 bus1=BBT2023475.1.2.3.0,bus2=BBT2023447.1.2.3.0,Phases=3,Linecode=BT108_BT107_7_3_1,Length=0.036010000,Units=km
new line.1872877 bus1=BBT2023475.1.2.3.0,bus2=BBT2023468.1.2.3.0,Phases=3,Linecode=BT107_BT107_7_3_1,Length=0.036070000,Units=km
new line.1872884 bus1=BBT2023475.1.2.3.0,bus2=BBT2023510.1.2.3.0,Phases=3,Linecode=BT107_BT106_7_3_1,Length=0.036030000,Units=km
new line.1872891 bus1=BBT2023496.1.2.3.0,bus2=BBT2023482.1.2.3.0,Phases=3,Linecode=BT107_BT107_7_3_1,Length=0.033030000,Units=km
new line.1872898 bus1=BBT2023496.1.2.3.0,bus2=BBT2023489.1.2.3.0,Phases=3,Linecode=BT107_BT107_7_3_1,Length=0.029080000,Units=km
new line.1872905 bus1=BBT2023503.1.2.3.0,bus2=BBT2023426.1.2.3.0,Phases=3,Linecode=BT107_BT107_7_3_1,Length=0.039030000,Units=km
new line.1872912 bus1=BBT2023510.1.2.3.0,bus2=BBT2023503.1.2.3.0,Phases=3,Linecode=BT107_BT106_7_3_1,Length=0.041790000,Units=km
new line.1872919 bus1=BBT2023517.1.2.3.0,bus2=BBT2023496.1.2.3.0,Phases=3,Linecode=BT108_BT107_7_3_1,Length=0.025330000,Units=km
new line.1872933 bus1=BBT2023545.1.2.3.0,bus2=BBT2023559.1.2.3.0,Phases=3,Linecode=BT108_BT107_7_3_1,Length=0.042600000,Units=km
new line.1872940 bus1=BBT2023545.1.2.3.0,bus2=BBT2023573.1.2.3.0,Phases=3,Linecode=BT107_BT107_7_3_1,Length=0.034490000,Units=km
new line.1872947 bus1=BBT2023552.1.2.3.0,bus2=BBT2023545.1.2.3.0,Phases=3,Linecode=BT108_BT107_7_3_1,Length=0.035710000,Units=km
new line.1872954 bus1=BBT2023538.1.2.3.0,bus2=BBT2023552.1.2.3.0,Phases=3,Linecode=BT508_BT508_7_3_1,Length=0.000510000,Units=km
new line.1872961 bus1=BBT2023552.1.2.3.0,bus2=BBT2023664.1.2.3.0,Phases=3,Linecode=BT108_BT107_7_3_1,Length=0.038480000,Units=km
new line.1872968 bus1=BBT2023559.1.2.3.0,bus2=BBT2023566.1.2.3.0,Phases=3,Linecode=BT108_BT107_7_3_1,Length=0.029440000,Units=km
new line.1872975 bus1=BBT2023573.1.2.3.0,bus2=BBT2023594.1.2.3.0,Phases=3,Linecode=BT107_BT107_7_3_1,Length=0.036300000,Units=km
new line.1872982 bus1=BBT2308193.1.2.0,bus2=BBT2308242.1.2.0,Phases=2,Linecode=BT811_BT811_4_2_3,Length=0.013630000,Units=km
new line.1872989 bus1=BBT2023587.1.2.3.0,bus2=BBT2308193.1.2.3.0,Phases=3,Linecode=BT107_BT107_7_3_1,Length=0.029420000,Units=km
new line.1872996 bus1=BBT2023587.1.2.3.0,bus2=BBT2023636.1.2.3.0,Phases=3,Linecode=BT107_BT107_7_3_1,Length=0.029600000,Units=km
new line.1873003 bus1=BBT2023587.1.2.3.0,bus2=BBT2023650.1.2.3.0,Phases=3,Linecode=BT107_BT107_7_3_1,Length=0.005390000,Units=km
new line.1873010 bus1=BBT2023594.1.2.3.0,bus2=BBT2023587.1.2.3.0,Phases=3,Linecode=BT107_BT107_7_3_1,Length=0.004480000,Units=km
new line.1873017 bus1=BBT2023601.1.2.3.0,bus2=BBT2023580.1.2.3.0,Phases=3,Linecode=BT107_BT107_7_3_1,Length=0.036410000,Units=km
new line.1873024 bus1=BBT2023608.1.2.3.0,bus2=BBT2023615.1.2.3.0,Phases=3,Linecode=BT810_BT810_4_3_4,Length=0.039070000,Units=km
new line.1873038 bus1=BBT2023622.1.2.3.0,bus2=BBT2023601.1.2.3.0,Phases=3,Linecode=BT107_BT107_7_3_1,Length=0.008560000,Units=km
new line.1873045 bus1=BBT2023622.1.2.3.0,bus2=BBT2023629.1.2.3.0,Phases=3,Linecode=BT107_BT107_7_3_1,Length=0.042120000,Units=km
new line.1873052 bus1=BBT2023650.1.2.3.0,bus2=BBT2023643.1.2.3.0,Phases=3,Linecode=BT107_BT107_7_3_1,Length=0.026580000,Units=km
new line.1873059 bus1=BBT2023657.1.2.3.0,bus2=BBT2023622.1.2.3.0,Phases=3,Linecode=BT107_BT107_7_3_1,Length=0.024640000,Units=km
new line.1873066 bus1=BBT2023664.1.2.3.0,bus2=BBT2023608.1.2.3.0,Phases=3,Linecode=BT810_BT810_4_3_4,Length=0.041020000,Units=km
new line.18730682 bus1=BBT149377992.1.2.0,bus2=BBT149377993.1.2.0,Phases=2,Linecode=BT521_BT521_7_2_1,Length=0.000510000,Units=km
new line.1873073 bus1=BBT2023664.1.2.3.0,bus2=BBT2023657.1.2.3.0,Phases=3,Linecode=BT107_BT107_7_3_1,Length=0.031840000,Units=km
new line.1873080 bus1=BBT2023671.1.2.3.0,bus2=BBT2023678.1.2.3.0,Phases=3,Linecode=BT514_BT514_7_3_1,Length=0.000510000,Units=km
new line.1873087 bus1=BBT2024833.1.2.3.0,bus2=BBT2024840.1.2.3.0,Phases=3,Linecode=BT107_BT107_7_3_1,Length=0.037660000,Units=km
new line.1873108 bus1=BBT2023706.1.2.3.0,bus2=BBT2023804.1.2.3.0,Phases=3,Linecode=BT107_BT107_7_3_1,Length=0.033070000,Units=km
new line.1873115 bus1=BBT2023713.1.2.3.0,bus2=BBT2023706.1.2.3.0,Phases=3,Linecode=BT803_BT803_4_3_4,Length=0.025030000,Units=km
new line.1873122 bus1=BBT2023720.1.2.3.0,bus2=BBT2023797.1.2.3.0,Phases=3,Linecode=BT107_BT107_7_3_1,Length=0.027080000,Units=km
new line.1873129 bus1=BBT2023727.1.2.3.0,bus2=BBT2023713.1.2.3.0,Phases=3,Linecode=BT803_BT803_4_3_4,Length=0.031270000,Units=km
new line.1873136 bus1=BBT2023699.1.2.3.0,bus2=BBT2023734.1.2.3.0,Phases=3,Linecode=BT521_BT521_7_3_1,Length=0.000510000,Units=km
new line.1873143 bus1=BBT2023734.1.2.3.0,bus2=BBT2023741.1.2.3.0,Phases=3,Linecode=BT108_BT107_7_3_1,Length=0.028290000,Units=km
new line.1873150 bus1=BBT2023734.1.2.3.0,bus2=BBT2023748.1.2.3.0,Phases=3,Linecode=BT108_BT107_7_3_1,Length=0.025030000,Units=km
new line.10044481 bus1=BBT146341283.1.2.3.0,bus2=BBT2025848.1.2.3.0,Phases=3,Linecode=BT805_BT805_4_3_4,Length=0.013420000,Units=km
new line.10044523 bus1=BBT2025848.1.2.3.0,bus2=BBT146342214.1.2.3.0,Phases=3,Linecode=BT803_BT803_4_3_4,Length=0.028800000,Units=km
new line.10044530 bus1=BBT146342214.1.2.3.0,bus2=BBT146342221.1.2.3.0,Phases=3,Linecode=BT803_BT803_4_3_4,Length=0.033000000,Units=km
new line.10063556 bus1=BBT146965137.1.2.0,bus2=BBT146965144.1.2.0,Phases=2,Linecode=BT518_BT518_7_2_1,Length=0.000510000,Units=km
new line.10063577 bus1=BBT146965144.1.2.0,bus2=BBT146965382.1.2.0,Phases=2,Linecode=BT803_BT803_4_2_4,Length=0.036180000,Units=km
new line.10063584 bus1=BBT146965382.1.2.0,bus2=BBT146965389.1.2.0,Phases=2,Linecode=BT803_BT803_4_2_4,Length=0.035940000,Units=km
new line.10063591 bus1=BBT146965144.1.2.0,bus2=BBT146965396.1.2.0,Phases=2,Linecode=BT803_BT803_4_2_4,Length=0.035940000,Units=km
new line.10063598 bus1=BBT146965396.1.2.0,bus2=BBT146965403.1.2.0,Phases=2,Linecode=BT803_BT803_4_2_4,Length=0.036730000,Units=km
new line.10063605 bus1=BBT146965403.1.2.0,bus2=BBT146965410.1.2.0,Phases=2,Linecode=BT803_BT803_4_2_4,Length=0.036730000,Units=km
new line.1876027 bus1=BBT2026625.1.2.3.0,bus2=BBT2026632.1.2.3.0,Phases=3,Linecode=BT514_BT514_7_3_1,Length=0.000510000,Units=km
new line.1876041 bus1=BBT2026653.1.2.3.0,bus2=BBT2026660.1.2.3.0,Phases=3,Linecode=BT521_BT521_7_3_1,Length=0.000510000,Units=km
new line.1876048 bus1=BBT2026660.1.2.3.0,bus2=BBT2884111.1.2.3.0,Phases=3,Linecode=BT810_BT810_4_3_4,Length=0.018980000,Units=km
new line.1876062 bus1=BBT2026737.1.2.3.0,bus2=BBT2026744.1.2.3.0,Phases=3,Linecode=BT108_BT107_7_3_1,Length=0.039070000,Units=km
new line.1876069 bus1=BBT2026737.1.2.3.0,bus2=BBT2026793.1.2.3.0,Phases=3,Linecode=BT107_BT107_7_3_1,Length=0.023010000,Units=km
new line.1876076 bus1=BBT2026758.1.2.3.0,bus2=BBT2026765.1.2.3.0,Phases=3,Linecode=BT107_BT107_7_3_1,Length=0.024750000,Units=km
new line.1876083 bus1=BBT2026765.1.2.3.0,bus2=BBT2026772.1.2.3.0,Phases=3,Linecode=BT803_BT803_4_3_4,Length=0.039860000,Units=km
new line.1876090 bus1=BBT2026765.1.2.3.0,bus2=BBT2026779.1.2.3.0,Phases=3,Linecode=BT107_BT107_7_3_1,Length=0.029780000,Units=km
new line.1876097 bus1=BBT2026779.1.2.3.0,bus2=BBT2026786.1.2.3.0,Phases=3,Linecode=BT107_BT107_7_3_1,Length=0.032650000,Units=km
new line.1876104 bus1=BBT2026821.1.2.3.0,bus2=BBT2026835.1.2.3.0,Phases=3,Linecode=BT107_BT107_7_3_1,Length=0.024200000,Units=km
new line.1876111 bus1=BBT2031469.1.2.3.0,bus2=BBT2031476.1.2.3.0,Phases=3,Linecode=BT107_BT107_7_3_1,Length=0.028040000,Units=km
new line.1876118 bus1=BBT2026842.1.2.3.0,bus2=BBT2026821.1.2.3.0,Phases=3,Linecode=BT107_BT107_7_3_1,Length=0.029170000,Units=km
new line.1876125 bus1=BBT2026849.1.2.3.0,bus2=BBT2026842.1.2.3.0,Phases=3,Linecode=BT107_BT107_7_3_1,Length=0.037370000,Units=km
new line.1876132 bus1=BBT2026856.1.2.3.0,bus2=BBT2026737.1.2.3.0,Phases=3,Linecode=BT108_BT107_7_3_1,Length=0.035720000,Units=km
new line.1876139 bus1=BBT2026681.1.2.3.0,bus2=BBT2026856.1.2.3.0,Phases=3,Linecode=BT521_BT521_7_3_1,Length=0.000510000,Units=km
new line.1876146 bus1=BBT2026856.1.2.3.0,bus2=BBT2026863.1.2.3.0,Phases=3,Linecode=BT108_BT107_7_3_1,Length=0.039670000,Units=km
new line.1876153 bus1=BBT2026863.1.2.3.0,bus2=BBT2026849.1.2.3.0,Phases=3,Linecode=BT108_BT107_7_3_1,Length=0.039360000,Units=km
new line.1876160 bus1=BBT2026863.1.2.3.0,bus2=BBT2026870.1.2.3.0,Phases=3,Linecode=BT803_BT803_4_3_4,Length=0.030630000,Units=km
new line.1876167 bus1=BBT2026863.1.2.3.0,bus2=BBT2310125.1.2.3.0,Phases=3,Linecode=BT503_BT503_5_3_1,Length=0.004000000,Units=km
new line.1876174 bus1=BBT2026870.1.2.3.0,bus2=BBT2026828.1.2.3.0,Phases=3,Linecode=BT803_BT803_4_3_4,Length=0.028670000,Units=km
new line.1876188 bus1=BBT3983083.1.2.3.0,bus2=BBT3983090.1.2.3.0,Phases=3,Linecode=BT509_BT509_7_3_1,Length=0.000510000,Units=km
new line.1876223 bus1=BBT2026919.1.2.3.0,bus2=BBT2026933.1.2.3.0,Phases=3,Linecode=BT107_BT107_7_3_1,Length=0.029470000,Units=km
new line.1876230 bus1=BBT2026926.1.2.3.0,bus2=BBT2026912.1.2.3.0,Phases=3,Linecode=BT107_BT107_7_3_1,Length=0.031970000,Units=km
new line.1876237 bus1=BBT2026940.1.2.3.0,bus2=BBT2026905.1.2.3.0,Phases=3,Linecode=BT107_BT107_7_3_1,Length=0.033850000,Units=km
new line.1876244 bus1=BBT2026940.1.2.3.0,bus2=BBT2026919.1.2.3.0,Phases=3,Linecode=BT107_BT107_7_3_1,Length=0.033850000,Units=km
new line.1876258 bus1=BBT2026947.1.2.3.0,bus2=BBT2026940.1.2.3.0,Phases=3,Linecode=BT108_BT107_7_3_1,Length=0.026840000,Units=km
new line.1876265 bus1=BBT2026898.1.2.3.0,bus2=BBT2026947.1.2.3.0,Phases=3,Linecode=BT521_BT521_7_3_1,Length=0.000510000,Units=km
new line.1876272 bus1=BBT2026947.1.2.3.0,bus2=BBT2026954.1.2.3.0,Phases=3,Linecode=BT108_BT107_7_3_1,Length=0.023780000,Units=km
new line.1876279 bus1=BBT2026954.1.2.3.0,bus2=BBT2026961.1.2.3.0,Phases=3,Linecode=BT108_BT107_7_3_1,Length=0.020130000,Units=km
new line.18762813 bus1=BBT150359937.1.2.0,bus2=BBT3569243.1.2.0,Phases=2,Linecode=BT508_BT508_7_2_1,Length=0.000510000,Units=km
new line.18762836 bus1=BBT2035333.1.2.0,bus2=BBT150360622.1.2.0,Phases=2,Linecode=BT803_BT803_4_2_4,Length=0.037030000,Units=km
new line.1876286 bus1=BBT2026961.1.2.3.0,bus2=BBT2026926.1.2.3.0,Phases=3,Linecode=BT107_BT107_7_3_1,Length=0.025310000,Units=km
new line.1876328 bus1=BBT2027024.1.2.3.0,bus2=BBT2027031.1.2.3.0,Phases=3,Linecode=BT513_BT513_7_3_1,Length=0.000510000,Units=km
new line.1876335 bus1=BBT2027031.1.2.3.0,bus2=BBT2027108.1.2.3.0,Phases=3,Linecode=BT108_BT107_7_3_1,Length=0.017470000,Units=km
new line.1876342 bus1=BBT2027031.1.2.3.0,bus2=BBT2027150.1.2.3.0,Phases=3,Linecode=BT108_BT107_7_3_1,Length=0.033560000,Units=km
new line.1876349 bus1=BBT2027038.1.2.3.0,bus2=BBT2027101.1.2.3.0,Phases=3,Linecode=BT108_BT107_7_3_1,Length=0.027910000,Units=km
new line.1876356 bus1=BBT2027045.1.2.3.0,bus2=BBT2027115.1.2.3.0,Phases=3,Linecode=BT108_BT107_7_3_1,Length=0.038350000,Units=km
new line.18763621 bus1=BBT150378631.1.2.0,bus2=BBT150378632.1.2.0,Phases=2,Linecode=BT518_BT518_7_2_1,Length=0.000510000,Units=km
new line.18763626 bus1=BBT150378632.1.2.0,bus2=BBT150378653.1.2.0,Phases=2,Linecode=BT803_BT803_4_2_4,Length=0.035520000,Units=km
new line.18763627 bus1=BBT150378653.1.2.0,bus2=BBT150378654.1.2.0,Phases=2,Linecode=BT803_BT803_4_2_4,Length=0.034420000,Units=km
new line.18763628 bus1=BBT150378632.1.2.0,bus2=BBT150378657.1.2.0,Phases=2,Linecode=BT803_BT803_4_2_4,Length=0.031630000,Units=km
new line.18763629 bus1=BBT150378657.1.2.0,bus2=BBT150378670.1.2.0,Phases=2,Linecode=BT803_BT803_4_2_4,Length=0.034680000,Units=km
new line.1876363 bus1=BBT2027045.1.2.3.0,bus2=BBT2027038.1.2.3.0,Phases=3,Linecode=BT108_BT107_7_3_1,Length=0.033900000,Units=km
new line.1876370 bus1=BBT2027045.1.2.3.0,bus2=BBT2027094.1.2.3.0,Phases=3,Linecode=BT107_BT107_7_3_1,Length=0.035860000,Units=km
new line.1876377 bus1=BBT2027052.1.2.3.0,bus2=BBT3221490.1.2.3.0,Phases=3,Linecode=BT803_BT803_4_3_4,Length=0.045210000,Units=km
new line.1876384 bus1=BBT2027059.1.2.3.0,bus2=BBT2027066.1.2.3.0,Phases=3,Linecode=BT107_BT107_7_3_1,Length=0.034600000,Units=km
new line.1876391 bus1=BBT2027052.1.2.3.0,bus2=BBT148649625.1.2.3.0,Phases=3,Linecode=BT803_BT803_4_3_4,Length=0.033120000,Units=km
new line.1876398 bus1=BBT148649625.1.2.3.0,bus2=BBT2027059.1.2.3.0,Phases=3,Linecode=BT107_BT107_7_3_1,Length=0.033590000,Units=km
new line.1873913 bus1=BBT2024518.1.2.3.0,bus2=BBT2024497.1.2.3.0,Phases=3,Linecode=BT108_BT107_7_3_1,Length=0.040040000,Units=km
new line.1873934 bus1=BBT2024546.1.2.3.0,bus2=BBT2024553.1.2.3.0,Phases=3,Linecode=BT508_BT508_7_3_1,Length=0.000510000,Units=km
new line.1873941 bus1=BBT2024553.1.2.3.0,bus2=BBT2024560.1.2.3.0,Phases=3,Linecode=BT108_BT107_7_3_1,Length=0.037500000,Units=km
new line.1873948 bus1=BBT2024553.1.2.3.0,bus2=BBT2024595.1.2.3.0,Phases=3,Linecode=BT108_BT107_7_3_1,Length=0.035370000,Units=km
new line.1873955 bus1=BBT2024560.1.2.3.0,bus2=BBT2024567.1.2.3.0,Phases=3,Linecode=BT108_BT107_7_3_1,Length=0.041790000,Units=km
new line.1873962 bus1=BBT2024567.1.2.3.0,bus2=BBT2024574.1.2.3.0,Phases=3,Linecode=BT108_BT107_7_3_1,Length=0.037140000,Units=km
new line.1873976 bus1=BBT2024581.1.2.3.0,bus2=BBT2024630.1.2.3.0,Phases=3,Linecode=BT107_BT107_7_3_1,Length=0.029080000,Units=km
new line.1873983 bus1=BBT2024588.1.2.3.0,bus2=BBT2024581.1.2.3.0,Phases=3,Linecode=BT107_BT107_7_3_1,Length=0.033150000,Units=km
new line.1873990 bus1=BBT2024595.1.2.3.0,bus2=BBT2024602.1.2.3.0,Phases=3,Linecode=BT803_BT803_4_3_4,Length=0.033390000,Units=km
new line.1873997 bus1=BBT2024602.1.2.3.0,bus2=BBT2024609.1.2.3.0,Phases=3,Linecode=BT803_BT803_4_3_4,Length=0.027080000,Units=km
new line.1874004 bus1=BBT2024602.1.2.3.0,bus2=BBT2024623.1.2.3.0,Phases=3,Linecode=BT803_BT803_4_3_4,Length=0.042590000,Units=km
new line.1874011 bus1=BBT2024609.1.2.3.0,bus2=BBT2024616.1.2.3.0,Phases=3,Linecode=BT107_BT107_7_3_1,Length=0.020400000,Units=km
new line.1874018 bus1=BBT2024616.1.2.3.0,bus2=BBT2024588.1.2.3.0,Phases=3,Linecode=BT107_BT107_7_3_1,Length=0.045120000,Units=km
new line.1874025 bus1=BBT2026744.1.2.3.0,bus2=BBT2026751.1.2.3.0,Phases=3,Linecode=BT107_BT107_7_3_1,Length=0.026320000,Units=km
new line.1874032 bus1=BBT2026744.1.2.3.0,bus2=BBT2026758.1.2.3.0,Phases=3,Linecode=BT107_BT107_7_3_1,Length=0.027310000,Units=km
new line.1874046 bus1=BBT2024658.1.2.3.0,bus2=BBT2024686.1.2.3.0,Phases=3,Linecode=BT108_BT107_7_3_1,Length=0.035240000,Units=km
new line.1874060 bus1=BBT2024665.1.2.3.0,bus2=BBT2024672.1.2.3.0,Phases=3,Linecode=BT108_BT107_7_3_1,Length=0.037500000,Units=km
new line.1874067 bus1=BBT2024679.1.2.3.0,bus2=BBT2024665.1.2.3.0,Phases=3,Linecode=BT108_BT107_7_3_1,Length=0.034250000,Units=km
new line.1874074 bus1=BBT2024693.1.2.3.0,bus2=BBT2024658.1.2.3.0,Phases=3,Linecode=BT108_BT107_7_3_1,Length=0.036230000,Units=km
new line.1874081 bus1=BBT2024693.1.2.3.0,bus2=BBT2024679.1.2.3.0,Phases=3,Linecode=BT108_BT107_7_3_1,Length=0.035240000,Units=km
new line.1874088 bus1=BBT2024651.1.2.3.0,bus2=BBT2024693.1.2.3.0,Phases=3,Linecode=BT508_BT508_7_3_1,Length=0.000510000,Units=km
new line.1874109 bus1=BBT2024714.1.2.3.0,bus2=BBT2024721.1.2.3.0,Phases=3,Linecode=BT521_BT521_7_3_1,Length=0.000510000,Units=km
new line.1874123 bus1=BBT2024749.1.2.3.0,bus2=BBT2024812.1.2.3.0,Phases=3,Linecode=BT107_BT107_7_3_1,Length=0.027120000,Units=km
new line.1874130 bus1=BBT2024756.1.2.3.0,bus2=BBT2024749.1.2.3.0,Phases=3,Linecode=BT107_BT107_7_3_1,Length=0.027030000,Units=km
new line.1874137 bus1=BBT2024756.1.2.3.0,bus2=BBT2024805.1.2.3.0,Phases=3,Linecode=BT107_BT107_7_3_1,Length=0.028290000,Units=km
new line.1874144 bus1=BBT2024763.1.2.3.0,bus2=BBT2024756.1.2.3.0,Phases=3,Linecode=BT108_BT107_7_3_1,Length=0.037140000,Units=km
new line.1874151 bus1=BBT2024770.1.2.3.0,bus2=BBT2024763.1.2.3.0,Phases=3,Linecode=BT108_BT107_7_3_1,Length=0.038850000,Units=km
new line.1874158 bus1=BBT2024777.1.2.3.0,bus2=BBT2024770.1.2.3.0,Phases=3,Linecode=BT108_BT107_7_3_1,Length=0.048530000,Units=km
new line.1874165 bus1=BBT2024742.1.2.3.0,bus2=BBT2024777.1.2.3.0,Phases=3,Linecode=BT508_BT508_7_3_1,Length=0.000510000,Units=km
new line.1874172 bus1=BBT2024777.1.2.3.0,bus2=BBT2024798.1.2.3.0,Phases=3,Linecode=BT108_BT107_7_3_1,Length=0.031330000,Units=km
new line.1874179 bus1=BBT2024784.1.2.3.0,bus2=BBT2024847.1.2.3.0,Phases=3,Linecode=BT803_BT803_4_3_4,Length=0.037120000,Units=km
new line.1874186 bus1=BBT2024791.1.2.3.0,bus2=BBT2024784.1.2.3.0,Phases=3,Linecode=BT803_BT803_4_3_4,Length=0.024340000,Units=km
new line.1874193 bus1=BBT2024791.1.2.3.0,bus2=BBT2024854.1.2.3.0,Phases=3,Linecode=BT107_BT107_7_3_1,Length=0.039640000,Units=km
new line.1874200 bus1=BBT2024798.1.2.3.0,bus2=BBT2024791.1.2.3.0,Phases=3,Linecode=BT108_BT107_7_3_1,Length=0.039310000,Units=km
new line.1874207 bus1=BBT2024805.1.2.3.0,bus2=BBT2024819.1.2.3.0,Phases=3,Linecode=BT107_BT107_7_3_1,Length=0.029170000,Units=km
new line.1874214 bus1=BBT2024819.1.2.3.0,bus2=BBT2024826.1.2.3.0,Phases=3,Linecode=BT107_BT107_7_3_1,Length=0.035240000,Units=km
new line.1874221 bus1=BBT2024826.1.2.3.0,bus2=BBT2024833.1.2.3.0,Phases=3,Linecode=BT107_BT107_7_3_1,Length=0.028030000,Units=km
new line.1874228 bus1=BBT2024847.1.2.3.0,bus2=BBT157333178.1.2.3.0,Phases=3,Linecode=BT803_BT803_4_3_4,Length=0.036890000,Units=km
new line.1874235 bus1=BBT2024854.1.2.3.0,bus2=BBT2024861.1.2.3.0,Phases=3,Linecode=BT107_BT107_7_3_1,Length=0.046880000,Units=km
new line.1874242 bus1=BBT2024861.1.2.3.0,bus2=BBT2024868.1.2.3.0,Phases=3,Linecode=BT107_BT107_7_3_1,Length=0.045190000,Units=km
new line.1874249 bus1=BBT2024875.1.2.3.0,bus2=BBT2024882.1.2.3.0,Phases=3,Linecode=BT521_BT521_7_3_1,Length=0.000510000,Units=km
new line.1874256 bus1=BBT2024882.1.2.3.0,bus2=BBT2024889.1.2.3.0,Phases=3,Linecode=BT108_BT107_7_3_1,Length=0.036260000,Units=km
new line.1874263 bus1=BBT2024882.1.2.3.0,bus2=BBT2024994.1.2.3.0,Phases=3,Linecode=BT108_BT107_7_3_1,Length=0.033120000,Units=km
new line.1874270 bus1=BBT2024889.1.2.3.0,bus2=BBT2024896.1.2.3.0,Phases=3,Linecode=BT107_BT107_7_3_1,Length=0.029080000,Units=km
new line.1874277 bus1=BBT2024889.1.2.3.0,bus2=BBT2024910.1.2.3.0,Phases=3,Linecode=BT107_BT107_7_3_1,Length=0.039570000,Units=km
new line.1874284 bus1=BBT2024889.1.2.3.0,bus2=BBT2024959.1.2.3.0,Phases=3,Linecode=BT107_BT107_7_3_1,Length=0.035480000,Units=km
new line.1874291 bus1=BBT2024896.1.2.3.0,bus2=BBT2024903.1.2.3.0,Phases=3,Linecode=BT107_BT107_7_3_1,Length=0.038090000,Units=km
new line.1874298 bus1=BBT2024903.1.2.3.0,bus2=BBT2024917.1.2.3.0,Phases=3,Linecode=BT107_BT107_7_3_1,Length=0.039570000,Units=km
new line.1874305 bus1=BBT2024910.1.2.3.0,bus2=BBT2024952.1.2.3.0,Phases=3,Linecode=BT810_BT810_4_3_4,Length=0.037350000,Units=km
new line.1874312 bus1=BBT2024917.1.2.3.0,bus2=BBT2024924.1.2.3.0,Phases=3,Linecode=BT107_BT107_7_3_1,Length=0.040870000,Units=km
new line.1874319 bus1=BBT2024931.1.2.3.0,bus2=BBT2409616.1.2.3.0,Phases=3,Linecode=BT810_BT810_4_3_4,Length=0.039940000,Units=km
new line.1874333 bus1=BBT2024938.1.2.3.0,bus2=BBT2025043.1.2.3.0,Phases=3,Linecode=BT810_BT810_4_3_4,Length=0.035350000,Units=km
new line.1874340 bus1=BBT2024938.1.2.3.0,bus2=BBT2409707.1.2.3.0,Phases=3,Linecode=BT810_BT810_4_3_4,Length=0.042970000,Units=km
new line.1874347 bus1=BBT2024945.1.2.3.0,bus2=BBT2024938.1.2.3.0,Phases=3,Linecode=BT810_BT810_4_3_4,Length=0.039940000,Units=km
new line.1874354 bus1=BBT2024959.1.2.3.0,bus2=BBT2024966.1.2.3.0,Phases=3,Linecode=BT107_BT107_7_3_1,Length=0.034900000,Units=km
new line.1874361 bus1=BBT2024966.1.2.0,bus2=BBT2024973.1.2.0,Phases=2,Linecode=BT107_BT107_7_2_1,Length=0.028800000,Units=km
new line.1874368 bus1=BBT2024966.1.2.3.0,bus2=BBT2024987.1.2.3.0,Phases=3,Linecode=BT107_BT107_7_3_1,Length=0.031400000,Units=km
new line.1874375 bus1=BBT2024973.1.2.0,bus2=BBT2024980.1.2.0,Phases=2,Linecode=BT107_BT107_7_2_1,Length=0.032320000,Units=km
new line.10032959 bus1=BBT145941954.1.2.0,bus2=BBT145941961.1.2.0,Phases=2,Linecode=BT518_BT518_7_2_1,Length=0.000510000,Units=km
new line.10032973 bus1=BBT145941961.1.2.0,bus2=BBT145942997.1.2.0,Phases=2,Linecode=BT803_BT803_4_2_4,Length=0.034970000,Units=km
new line.10032980 bus1=BBT145941961.1.2.0,bus2=BBT145943018.1.2.0,Phases=2,Linecode=BT803_BT803_4_2_4,Length=0.035210000,Units=km
new line.10032987 bus1=BBT145943018.1.2.0,bus2=BBT145943165.1.2.0,Phases=2,Linecode=BT803_BT803_4_2_4,Length=0.040310000,Units=km
new line.1858576 bus1=BBT2005534.1.2.0,bus2=BBT2005541.1.2.0,Phases=2,Linecode=BT304_BT304_7_2_1,Length=0.000510000,Units=km
new line.1875005 bus1=BBT2025596.1.2.3.0,bus2=BBT2025603.1.2.3.0,Phases=3,Linecode=BT108_BT107_7_3_1,Length=0.027090000,Units=km
new line.1875012 bus1=BBT2025596.1.2.0,bus2=BBT2025687.1.2.0,Phases=2,Linecode=BT106_BT106_7_2_1,Length=0.024080000,Units=km
new line.1875019 bus1=BBT2025603.1.2.3.0,bus2=BBT2025610.1.2.3.0,Phases=3,Linecode=BT108_BT107_7_3_1,Length=0.044760000,Units=km
new line.1875026 bus1=BBT2025603.1.2.3.0,bus2=BBT2025666.1.2.3.0,Phases=3,Linecode=BT106_BT106_7_3_1,Length=0.039850000,Units=km
new line.1875033 bus1=BBT2025610.1.2.3.0,bus2=BBT2025617.1.2.3.0,Phases=3,Linecode=BT108_BT107_7_3_1,Length=0.043750000,Units=km
new line.1875061 bus1=BBT2026023.1.2.3.0,bus2=BBT2026030.1.2.3.0,Phases=3,Linecode=BT106_BT106_7_3_1,Length=0.029570000,Units=km
new line.1875068 bus1=BBT2025645.1.2.3.0,bus2=BBT2025638.1.2.3.0,Phases=3,Linecode=BT106_BT106_7_3_1,Length=0.026920000,Units=km
new line.1875075 bus1=BBT2025652.1.2.0,bus2=BBT2025659.1.2.0,Phases=2,Linecode=BT106_BT106_7_2_1,Length=0.037640000,Units=km
new line.1875082 bus1=BBT2025666.1.2.3.0,bus2=BBT2025729.1.2.3.0,Phases=3,Linecode=BT106_BT106_7_3_1,Length=0.049260000,Units=km
new line.1875089 bus1=BBT2025680.1.2.0,bus2=BBT2025673.1.2.0,Phases=2,Linecode=BT106_BT106_7_2_1,Length=0.032280000,Units=km
new line.1875096 bus1=BBT2025687.1.2.0,bus2=BBT2025680.1.2.0,Phases=2,Linecode=BT106_BT106_7_2_1,Length=0.035820000,Units=km
new line.1875103 bus1=BBT2025687.1.2.0,bus2=BBT2025743.1.2.0,Phases=2,Linecode=BT106_BT106_7_2_1,Length=0.048680000,Units=km
new line.1875110 bus1=BBT2025694.1.2.3.0,bus2=BBT2025596.1.2.3.0,Phases=3,Linecode=BT108_BT107_7_3_1,Length=0.028030000,Units=km
new line.1875117 bus1=BBT2025589.1.2.3.0,bus2=BBT2025694.1.2.3.0,Phases=3,Linecode=BT508_BT508_7_3_1,Length=0.000510000,Units=km
new line.1875124 bus1=BBT2025694.1.2.3.0,bus2=BBT2025701.1.2.3.0,Phases=3,Linecode=BT108_BT107_7_3_1,Length=0.018710000,Units=km
new line.1875131 bus1=BBT2025701.1.2.3.0,bus2=BBT2025708.1.2.3.0,Phases=3,Linecode=BT108_BT107_7_3_1,Length=0.029040000,Units=km
new line.1875138 bus1=BBT2025708.1.2.3.0,bus2=BBT2025722.1.2.3.0,Phases=3,Linecode=BT108_BT107_7_3_1,Length=0.033040000,Units=km
new line.1875152 bus1=BBT2025722.1.2.3.0,bus2=BBT2025631.1.2.3.0,Phases=3,Linecode=BT815_BT815_4_3_4,Length=0.031830000,Units=km
new line.1875159 bus1=BBT2025722.1.2.3.0,bus2=BBT2025715.1.2.3.0,Phases=3,Linecode=BT803_BT803_4_3_4,Length=0.026350000,Units=km
new line.1875166 bus1=BBT2025729.1.2.3.0,bus2=BBT2025736.1.2.3.0,Phases=3,Linecode=BT106_BT106_7_3_1,Length=0.039520000,Units=km
new line.1875173 bus1=BBT2025736.1.2.3.0,bus2=BBT2025645.1.2.3.0,Phases=3,Linecode=BT106_BT106_7_3_1,Length=0.030970000,Units=km
new line.1875180 bus1=BBT2025736.1.2.3.0,bus2=BBT2025652.1.2.3.0,Phases=3,Linecode=BT106_BT106_7_3_1,Length=0.030000000,Units=km
new line.1875187 bus1=BBT2025736.1.2.3.0,bus2=BBT2025750.1.2.3.0,Phases=3,Linecode=BT107_BT107_7_3_1,Length=0.035450000,Units=km
new line.1875194 bus1=BBT2025743.1.2.0,bus2=BBT2025624.1.2.0,Phases=2,Linecode=BT106_BT108_7_2_1,Length=0.041290000,Units=km
new line.1875201 bus1=BBT2025750.1.2.3.0,bus2=BBT2025757.1.2.3.0,Phases=3,Linecode=BT107_BT107_7_3_1,Length=0.028840000,Units=km
new line.1875208 bus1=BBT2025778.1.2.3.0,bus2=BBT2025771.1.2.3.0,Phases=3,Linecode=BT108_BT107_7_3_1,Length=0.037590000,Units=km
new line.1875215 bus1=BBT2025778.1.2.3.0,bus2=BBT2025792.1.2.3.0,Phases=3,Linecode=BT107_BT106_7_3_1,Length=0.037170000,Units=km
new line.1875222 bus1=BBT2025778.1.2.0,bus2=BBT2025806.1.2.0,Phases=2,Linecode=BT106_BT106_7_2_1,Length=0.034450000,Units=km
new line.1875229 bus1=BBT2025785.1.2.3.0,bus2=BBT2025778.1.2.3.0,Phases=3,Linecode=BT108_BT107_7_3_1,Length=0.039410000,Units=km
new line.1875236 bus1=BBT2025764.1.2.3.0,bus2=BBT146341283.1.2.3.0,Phases=3,Linecode=BT513_BT513_7_3_1,Length=0.000510000,Units=km
new line.1875243 bus1=BBT2025813.1.2.3.0,bus2=BBT2025785.1.2.3.0,Phases=3,Linecode=BT108_BT107_7_3_1,Length=0.032210000,Units=km
new line.1875250 bus1=BBT2025813.1.2.3.0,bus2=BBT2025799.1.2.3.0,Phases=3,Linecode=BT805_BT805_4_3_4,Length=0.040330000,Units=km
new line.1875257 bus1=BBT146341283.1.2.3.0,bus2=BBT2025813.1.2.3.0,Phases=3,Linecode=BT805_BT805_4_3_4,Length=0.015660000,Units=km
new line.1875264 bus1=BBT158106521.1.2.3.0,bus2=BBT2025855.1.2.3.0,Phases=3,Linecode=BT803_BT803_4_3_4,Length=0.021480000,Units=km
new line.1875271 bus1=BBT2025827.1.2.3.0,bus2=BBT2025820.1.2.3.0,Phases=3,Linecode=BT803_BT803_4_3_4,Length=0.026690000,Units=km
new line.1875278 bus1=BBT2025834.1.2.3.0,bus2=BBT2025827.1.2.3.0,Phases=3,Linecode=BT803_BT803_4_3_4,Length=0.033750000,Units=km
new line.1875285 bus1=BBT158106288.1.2.3.0,bus2=BBT2025834.1.2.3.0,Phases=3,Linecode=BT803_BT803_4_3_4,Length=0.019420000,Units=km
new line.1875292 bus1=BBT2025841.1.2.3.0,bus2=BBT2025862.1.2.3.0,Phases=3,Linecode=BT107_BT107_7_3_1,Length=0.035790000,Units=km
new line.1875299 bus1=BBT2025841.1.2.3.0,bus2=BBT2025869.1.2.3.0,Phases=3,Linecode=BT805_BT805_4_3_4,Length=0.033120000,Units=km
new line.1875306 bus1=BBT2025848.1.2.3.0,bus2=BBT2025841.1.2.3.0,Phases=3,Linecode=BT805_BT805_4_3_4,Length=0.035860000,Units=km
new line.1875313 bus1=BBT2025862.1.2.3.0,bus2=BBT2025883.1.2.3.0,Phases=3,Linecode=BT107_BT107_7_3_1,Length=0.027320000,Units=km
new line.1875320 bus1=BBT2025869.1.2.3.0,bus2=BBT2025876.1.2.3.0,Phases=3,Linecode=BT805_BT805_4_3_4,Length=0.037170000,Units=km
new line.1875327 bus1=BBT2025883.1.2.3.0,bus2=BBT2025890.1.2.3.0,Phases=3,Linecode=BT107_BT107_7_3_1,Length=0.038090000,Units=km
new line.1875334 bus1=BBT2025883.1.2.0,bus2=BBT2025897.1.2.0,Phases=2,Linecode=BT107_BT107_7_2_1,Length=0.030090000,Units=km
new line.1875341 bus1=BBT2025897.1.2.0,bus2=BBT2711596.1.2.0,Phases=2,Linecode=BT808_BT808_4_2_3,Length=0.039570000,Units=km
new line.1875355 bus1=BBT2025925.1.2.0,bus2=BBT2025953.1.2.0,Phases=2,Linecode=BT106_BT106_7_2_1,Length=0.038640000,Units=km
new line.1875362 bus1=BBT2025939.1.2.3.0,bus2=BBT2025932.1.2.3.0,Phases=3,Linecode=BT108_BT107_7_3_1,Length=0.037150000,Units=km
new line.1875369 bus1=BBT2025939.1.2.0,bus2=BBT2025925.1.2.0,Phases=2,Linecode=BT106_BT106_7_2_1,Length=0.023410000,Units=km
new line.1875376 bus1=BBT2025946.1.2.3.0,bus2=BBT2025967.1.2.3.0,Phases=3,Linecode=BT108_BT107_7_3_1,Length=0.032860000,Units=km
new line.1875383 bus1=BBT2025960.1.2.3.0,bus2=BBT2025939.1.2.3.0,Phases=3,Linecode=BT108_BT107_7_3_1,Length=0.037230000,Units=km
new line.1875390 bus1=BBT2025960.1.2.3.0,bus2=BBT2025946.1.2.3.0,Phases=3,Linecode=BT108_BT107_7_3_1,Length=0.032770000,Units=km
new line.1875397 bus1=BBT2025918.1.2.3.0,bus2=BBT2025960.1.2.3.0,Phases=3,Linecode=BT521_BT521_7_3_1,Length=0.000510000,Units=km
new line.1875404 bus1=BBT2025967.1.2.3.0,bus2=BBT2025974.1.2.3.0,Phases=3,Linecode=BT108_BT107_7_3_1,Length=0.034950000,Units=km