new line.RML10053601 bus1=BBT2023503.3.0,bus2=RML210053601.3.0,Phases=1,Linecode=CABBTG02_4_1,Length=0.017000000,Units=km
new line.RML10053605 bus1=BBT2026310.3.0,bus2=RML210053605.3.0,Phases=1,Linecode=CABBTG02_4_1,Length=0.017000000,Units=km
new line.RML10053613 bus1=BBT2023748.3.0,bus2=RML210053613.3.0,Phases=1,Linecode=CABBTG02_4_1,Length=0.017000000,Units=km
new line.RML10053616 bus1=BBT137361704.2.0,bus2=RML210053616.2.0,Phases=1,Linecode=CABBTG02_4_1,Length=0.017000000,Units=km
new line.RML10053621 bus1=BBT2024280.1.0,bus2=RML210053621.1.0,Phases=1,Linecode=CABBTG01_4_1,Length=0.017000000,Units=km
new line.RML10053623 bus1=BBT2030762.3.0,bus2=RML210053623.3.0,Phases=1,Linecode=CABBTG01_4_1,Length=0.017000000,Units=km
new line.RML10053626 bus1=BBT2035298.1.0,bus2=RML210053626.1.0,Phases=1,Linecode=CABBTG01_4_1,Length=0.017000000,Units=km
new line.RML10053628 bus1=BBT2028039.1.2.3.0,bus2=RML210053628.1.2.3.0,Phases=3,Linecode=CABBTG11_4_3,Length=0.017000000,Units=km
new line.RML10053631 bus1=BBT3221364.1.0,bus2=RML210053631.1.0,Phases=1,Linecode=CABBTG01_4_1,Length=0.017000000,Units=km
new line.RML10053634 bus1=BBT2031693.2.0,bus2=RML210053634.2.0,Phases=1,Linecode=CABBTG01_4_1,Length=0.017000000,Units=km
new line.RML10053635 bus1=BBT2031574.3.0,bus2=RML210053635.3.0,Phases=1,Linecode=CABBTG01_4_1,Length=0.017000000,Units=km
new line.RML10053697 bus1=BBT2033807.1.3.0,bus2=RML210053697.1.3.0,Phases=2,Linecode=CABBTG05_4_2,Length=0.017000000,Units=km
new line.RML10053698 bus1=BBT3221483.1.0,bus2=RML210053698.1.0,Phases=1,Linecode=CABBTG02_4_1,Length=0.017000000,Units=km
new line.RML10103873 bus1=BBT2023335.1.0,bus2=RML210103873.1.0,Phases=1,Linecode=CABBTG01_4_1,Length=0.017000000,Units=km
new line.RML10169654 bus1=BBT2025988.1.0,bus2=RML210169654.1.0,Phases=1,Linecode=CABBTG01_4_1,Length=0.017000000,Units=km
new line.RML10169677 bus1=BBT12514473.1.2.0,bus2=RML210169677.1.2.0,Phases=2,Linecode=CABBTG04_4_2,Length=0.017000000,Units=km
new line.RML10217220 bus1=BBT5860574.2.0,bus2=RML210217220.2.0,Phases=1,Linecode=CABBTG02_4_1,Length=0.017000000,Units=km
new line.RML10219442 bus1=BBT2035662.2.0,bus2=RML210219442.2.0,Phases=1,Linecode=CABBTG01_4_1,Length=0.017000000,Units=km
new line.RML10219487 bus1=BBT2030804.2.0,bus2=RML210219487.2.0,Phases=1,Linecode=CABBTG02_4_1,Length=0.017000000,Units=km
new line.RML10219489 bus1=BBT2023818.2.3.0,bus2=RML210219489.2.3.0,Phases=2,Linecode=CABBTG05_4_2,Length=0.017000000,Units=km
new line.RML10219499 bus1=BBT2029320.2.3.0,bus2=RML210219499.2.3.0,Phases=2,Linecode=CABBTG05_4_2,Length=0.017000000,Units=km
new line.RML10219505 bus1=BBT2027878.3.0,bus2=RML210219505.3.0,Phases=1,Linecode=CABBTG01_4_1,Length=0.017000000,Units=km
new line.RML10219508 bus1=BBT2034794.1.0,bus2=RML210219508.1.0,Phases=1,Linecode=CABBTG02_4_1,Length=0.017000000,Units=km
new line.RML10222721 bus1=BBT2035592.1.0,bus2=RML210222721.1.0,Phases=1,Linecode=CABBTG02_4_1,Length=0.017000000,Units=km
new line.RML10327891 bus1=BBT2027381.1.2.3.0,bus2=RML210327891.1.2.3.0,Phases=3,Linecode=CABBTG06_4_3,Length=0.017000000,Units=km
new line.RML10328071 bus1=BBT2409595.2.3.0,bus2=RML210328071.2.3.0,Phases=2,Linecode=CABBTG05_4_2,Length=0.017000000,Units=km
new line.RML10328077 bus1=BBT12658778.1.0,bus2=RML210328077.1.0,Phases=1,Linecode=CABBTG02_4_1,Length=0.017000000,Units=km
new line.RML10330073 bus1=BBT2031385.3.0,bus2=RML210330073.3.0,Phases=1,Linecode=CABBTG02_4_1,Length=0.017000000,Units=km
new line.RML10330075 bus1=BBT2023356.1.0,bus2=RML210330075.1.0,Phases=1,Linecode=CABBTG02_4_1,Length=0.017000000,Units=km
new line.RML10330076 bus1=BBT148641413.1.0,bus2=RML210330076.1.0,Phases=1,Linecode=CABBTG02_4_1,Length=0.017000000,Units=km
new line.RML10330077 bus1=BBT2409476.2.0,bus2=RML210330077.2.0,Phases=1,Linecode=CABBTG02_4_1,Length=0.017000000,Units=km
new line.RML10330078 bus1=BBT2028130.1.2.3.0,bus2=RML210330078.1.2.3.0,Phases=3,Linecode=CABBTG06_4_3,Length=0.017000000,Units=km
new line.RML10330079 bus1=BBT143630428.2.0,bus2=RML210330079.2.0,Phases=1,Linecode=CABBTG02_4_1,Length=0.017000000,Units=km
new line.RML10330080 bus1=BBT2026072.2.0,bus2=RML210330080.2.0,Phases=1,Linecode=CABBTG02_4_1,Length=0.017000000,Units=km
new line.RML10330081 bus1=BBT2035641.1.0,bus2=RML210330081.1.0,Phases=1,Linecode=CABBTG02_4_1,Length=0.017000000,Units=km
new line.RML10330084 bus1=BBT6360129.2.0,bus2=RML210330084.2.0,Phases=1,Linecode=CABBTG02_4_1,Length=0.017000000,Units=km
new line.RML10330085 bus1=BBT6360129.1.0,bus2=RML210330085.1.0,Phases=1,Linecode=CABBTG02_4_1,Length=0.017000000,Units=km
new line.RML10330086 bus1=BBT2023447.1.0,bus2=RML210330086.1.0,Phases=1,Linecode=CABBTG02_4_1,Length=0.017000000,Units=km
new line.RML10158267 bus1=BBT12660108.1.0,bus2=RML210158267.1.0,Phases=1,Linecode=CABBTG02_4_1,Length=0.017000000,Units=km
new line.RML10212938 bus1=BBT3221455.1.0,bus2=RML210212938.1.0,Phases=1,Linecode=CABBTG02_4_1,Length=0.017000000,Units=km
new line.RML10212942 bus1=BBT133258199.1.2.0,bus2=RML210212942.1.2.0,Phases=2,Linecode=CABBTG05_4_2,Length=0.017000000,Units=km
new line.RML10212948 bus1=BBT2035151.2.0,bus2=RML210212948.2.0,Phases=1,Linecode=CABBTG02_4_1,Length=0.017000000,Units=km
new line.RML10213033 bus1=BBT2024966.3.0,bus2=RML210213033.3.0,Phases=1,Linecode=CABBTG02_4_1,Length=0.017000000,Units=km
new line.RML10213036 bus1=BBT143630400.1.0,bus2=RML210213036.1.0,Phases=1,Linecode=CABBTG02_4_1,Length=0.017000000,Units=km
new line.RML10213061 bus1=BBT2026114.2.0,bus2=RML210213061.2.0,Phases=1,Linecode=CABBTG02_4_1,Length=0.017000000,Units=km
new line.RML10213101 bus1=BBT2027066.1.0,bus2=RML210213101.1.0,Phases=1,Linecode=CABBTG02_4_1,Length=0.017000000,Units=km
new line.RML10213114 bus1=BBT2033464.3.0,bus2=RML210213114.3.0,Phases=1,Linecode=CABBTG02_4_1,Length=0.017000000,Units=km
new line.RML10213914 bus1=BBT5222307.1.0,bus2=RML210213914.1.0,Phases=1,Linecode=CABBTG02_4_1,Length=0.017000000,Units=km
new line.RML10214377 bus1=BBT2030335.1.2.0,bus2=RML210214377.1.2.0,Phases=2,Linecode=CABBTG05_4_2,Length=0.017000000,Units=km
new line.RML10293403 bus1=BBT3569313.1.2.0,bus2=RML210293403.1.2.0,Phases=2,Linecode=CABBTG05_4_2,Length=0.017000000,Units=km
new line.RML10293415 bus1=BBT3569243.1.0,bus2=RML210293415.1.0,Phases=1,Linecode=CABBTG02_4_1,Length=0.017000000,Units=km
new line.RML10293429 bus1=BBT2711624.1.0,bus2=RML210293429.1.0,Phases=1,Linecode=CABBTG02_4_1,Length=0.017000000,Units=km
new line.RML10293437 bus1=BBT13277865.1.2.0,bus2=RML210293437.1.2.0,Phases=2,Linecode=CABBTG05_4_2,Length=0.017000000,Units=km
new line.RML10293449 bus1=BBT2032043.1.0,bus2=RML210293449.1.0,Phases=1,Linecode=CABBTG02_4_1,Length=0.017000000,Units=km
new line.RML10293451 bus1=BBT2032029.1.0,bus2=RML210293451.1.0,Phases=1,Linecode=CABBTG02_4_1,Length=0.017000000,Units=km
new line.RML10293453 bus1=BBT2408545.1.0,bus2=RML210293453.1.0,Phases=1,Linecode=CABBTG02_4_1,Length=0.017000000,Units=km
new line.RML10293454 bus1=BBT149568055.1.0,bus2=RML210293454.1.0,Phases=1,Linecode=CABBTG02_4_1,Length=0.017000000,Units=km
new line.RML10294569 bus1=BBT2026268.3.0,bus2=RML210294569.3.0,Phases=1,Linecode=CABBTG02_4_1,Length=0.017000000,Units=km
new line.RML10294572 bus1=BBT2025092.1.2.3.0,bus2=RML210294572.1.2.3.0,Phases=3,Linecode=CABBTG06_4_3,Length=0.017000000,Units=km
new line.RML10294579 bus1=BBT6474656.2.0,bus2=RML210294579.2.0,Phases=1,Linecode=CABBTG02_4_1,Length=0.017000000,Units=km
new line.RML10294582 bus1=BBT2409518.3.0,bus2=RML210294582.3.0,Phases=1,Linecode=CABBTG02_4_1,Length=0.017000000,Units=km
new line.RML10297083 bus1=BBT2024210.1.0,bus2=RML210297083.1.0,Phases=1,Linecode=CABBTG02_4_1,Length=0.017000000,Units=km
new line.RML10297150 bus1=BBT2025365.1.0,bus2=RML210297150.1.0,Phases=1,Linecode=CABBTG02_4_1,Length=0.017000000,Units=km
new line.RML10297154 bus1=BBT3568984.1.0,bus2=RML210297154.1.0,Phases=1,Linecode=CABBTG02_4_1,Length=0.017000000,Units=km
new line.RML10297221 bus1=BBT5654914.1.0,bus2=RML210297221.1.0,Phases=1,Linecode=CABBTG02_4_1,Length=0.017000000,Units=km
new line.RML10297226 bus1=BBT2034073.1.2.0,bus2=RML210297226.1.2.0,Phases=2,Linecode=CABBTG05_4_2,Length=0.017000000,Units=km
new line.RML10349008 bus1=BBT2034409.1.2.0,bus2=RML210349008.1.2.0,Phases=2,Linecode=CABBTG05_4_2,Length=0.017000000,Units=km
new line.RML10349554 bus1=BBT2034276.1.0,bus2=RML210349554.1.0,Phases=1,Linecode=CABBTG02_4_1,Length=0.017000000,Units=km
new line.RML10350215 bus1=BBT99486650.1.0,bus2=RML210350215.1.0,Phases=1,Linecode=CABBTG02_4_1,Length=0.017000000,Units=km
new line.RML10352365 bus1=BBT2030818.3.0,bus2=RML210352365.3.0,Phases=1,Linecode=CABBTG02_4_1,Length=0.017000000,Units=km
new line.RML10352432 bus1=BBT2035669.1.0,bus2=RML210352432.1.0,Phases=1,Linecode=CABBTG02_4_1,Length=0.017000000,Units=km
new line.RML10353751 bus1=BBT150378657.1.0,bus2=RML210353751.1.0,Phases=1,Linecode=CABBTG02_4_1,Length=0.017000000,Units=km
new line.RML10354816 bus1=BBT2024168.1.2.0,bus2=RML210354816.1.2.0,Phases=2,Linecode=CABBTG05_4_2,Length=0.017000000,Units=km
new line.RML10405734 bus1=BBT2409476.2.3.0,bus2=RML210405734.2.3.0,Phases=2,Linecode=CABBTG05_4_2,Length=0.017000000,Units=km
new line.RML10406720 bus1=BBT2024924.3.0,bus2=RML210406720.3.0,Phases=1,Linecode=CABBTG02_4_1,Length=0.017000000,Units=km
new line.RML10406935 bus1=BBT2023258.2.3.0,bus2=RML210406935.2.3.0,Phases=2,Linecode=CABBTG05_4_2,Length=0.017000000,Units=km
new line.RML10034321 bus1=BBT2408314.1.0,bus2=RML210034321.1.0,Phases=1,Linecode=CABBTG02_4_1,Length=0.017000000,Units=km
new line.RML10034323 bus1=BBT2025386.1.0,bus2=RML210034323.1.0,Phases=1,Linecode=CABBTG02_4_1,Length=0.017000000,Units=km
new line.RML10034469 bus1=BBT145942997.1.2.0,bus2=RML210034469.1.2.0,Phases=2,Linecode=CABBTG04_4_2,Length=0.017000000,Units=km
new line.RML10035104 bus1=BBT2711729.1.0,bus2=RML210035104.1.0,Phases=1,Linecode=CABBTG01_4_1,Length=0.017000000,Units=km
new line.RML10035843 bus1=BBT2025729.3.0,bus2=RML210035843.3.0,Phases=1,Linecode=CABBTG02_4_1,Length=0.017000000,Units=km
new line.RML10035845 bus1=BBT140029089.1.0,bus2=RML210035845.1.0,Phases=1,Linecode=CABBTG02_4_1,Length=0.017000000,Units=km
new line.RML10035849 bus1=BBT6353731.2.0,bus2=RML210035849.2.0,Phases=1,Linecode=CABBTG01_4_1,Length=0.017000000,Units=km
new line.RML10038249 bus1=BBT146965144.2.0,bus2=RML210038249.2.0,Phases=1,Linecode=CABBTG01_4_1,Length=0.017000000,Units=km
new line.RML10175235 bus1=BBT6546658.1.2.0,bus2=RML210175235.1.2.0,Phases=2,Linecode=CABBTG05_4_2,Length=0.017000000,Units=km
new line.RML10175239 bus1=BBT6360150.1.0,bus2=RML210175239.1.0,Phases=1,Linecode=CABBTG02_4_1,Length=0.017000000,Units=km
new line.RML10177817 bus1=BBT5409361.2.0,bus2=RML210177817.2.0,Phases=1,Linecode=CABBTG02_4_1,Length=0.017000000,Units=km
new line.RML10179368 bus1=BBT2035165.2.0,bus2=RML210179368.2.0,Phases=1,Linecode=CABBTG02_4_1,Length=0.017000000,Units=km
new line.RML10226952 bus1=BBT2029964.1.0,bus2=RML210226952.1.0,Phases=1,Linecode=CABBTG02_4_1,Length=0.017000000,Units=km
new line.RML10226953 bus1=BBT2711897.1.0,bus2=RML210226953.1.0,Phases=1,Linecode=CABBTG02_4_1,Length=0.017000000,Units=km
new line.RML10227098 bus1=BBT2023482.2.0,bus2=RML210227098.2.0,Phases=1,Linecode=CABBTG02_4_1,Length=0.017000000,Units=km
new line.RML10277357 bus1=BBT2025498.1.0,bus2=RML210277357.1.0,Phases=1,Linecode=CABBTG02_4_1,Length=0.017000000,Units=km
new line.RML10277360 bus1=BBT3569306.1.0,bus2=RML210277360.1.0,Phases=1,Linecode=CABBTG02_4_1,Length=0.017000000,Units=km
new line.RML10280352 bus1=BBT145942997.1.0,bus2=RML210280352.1.0,Phases=1,Linecode=CABBTG02_4_1,Length=0.017000000,Units=km
new line.RML10280463 bus1=BBT2026191.1.2.0,bus2=RML210280463.1.2.0,Phases=2,Linecode=CABBTG05_4_2,Length=0.017000000,Units=km
new line.RML10280606 bus1=BBT2026520.1.0,bus2=RML210280606.1.0,Phases=1,Linecode=CABBTG02_4_1,Length=0.017000000,Units=km
new line.RML10280700 bus1=BBT2024889.2.0,bus2=RML210280700.2.0,Phases=1,Linecode=CABBTG02_4_1,Length=0.017000000,Units=km
new line.RML10281325 bus1=BBT6360136.1.0,bus2=RML210281325.1.0,Phases=1,Linecode=CABBTG02_4_1,Length=0.017000000,Units=km
new line.RML10281378 bus1=BBT150436947.1.0,bus2=RML210281378.1.0,Phases=1,Linecode=CABBTG02_4_1,Length=0.017000000,Units=km
new line.RML10282348 bus1=BBT13277865.2.0,bus2=RML210282348.2.0,Phases=1,Linecode=CABBTG02_4_1,Length=0.017000000,Units=km
new line.RML10338068 bus1=BBT2024588.1.2.0,bus2=RML210338068.1.2.0,Phases=2,Linecode=CABBTG05_4_2,Length=0.017000000,Units=km
new line.RML10386135 bus1=BBT2030195.3.0,bus2=RML210386135.3.0,Phases=1,Linecode=CABBTG02_4_1,Length=0.017000000,Units=km
new line.RML10388043 bus1=BBT5559371.1.2.0,bus2=RML210388043.1.2.0,Phases=2,Linecode=CABBTG05_4_2,Length=0.017000000,Units=km
new line.RML10388076 bus1=BBT2409476.2.0,bus2=RML210388076.2.0,Phases=1,Linecode=CABBTG02_4_1,Length=0.017000000,Units=km
new line.RML10391327 bus1=BBT2031910.1.2.0,bus2=RML210391327.1.2.0,Phases=2,Linecode=CABBTG05_4_2,Length=0.017000000,Units=km
new line.RML10391369 bus1=BBT13277872.1.2.0,bus2=RML210391369.1.2.0,Phases=2,Linecode=CABBTG05_4_2,Length=0.017000000,Units=km
new line.RML10391584 bus1=BBT3221336.3.0,bus2=RML210391584.3.0,Phases=1,Linecode=CABBTG02_4_1,Length=0.017000000,Units=km
new line.RML10462758 bus1=BBT2035144.1.2.0,bus2=RML210462758.1.2.0,Phases=2,Linecode=CABBTG05_4_2,Length=0.017000000,Units=km
new line.RML10462806 bus1=BBT4344752.1.2.0,bus2=RML210462806.1.2.0,Phases=2,Linecode=CABBTG05_4_2,Length=0.017000000,Units=km
new line.RML10462829 bus1=BBT153852899.1.2.0,bus2=RML210462829.1.2.0,Phases=2,Linecode=CABBTG05_4_2,Length=0.025000000,Units=km
new line.RML10463356 bus1=BBT111880899.2.0,bus2=RML210463356.2.0,Phases=1,Linecode=CABBTG02_4_1,Length=0.017000000,Units=km
new line.RML10463362 bus1=BBT146965396.2.0,bus2=RML210463362.2.0,Phases=1,Linecode=CABBTG02_4_1,Length=0.017000000,Units=km
new line.RML10463441 bus1=BBT2029929.2.0,bus2=RML210463441.2.0,Phases=1,Linecode=CABBTG02_4_1,Length=0.017000000,Units=km
new line.RML10463847 bus1=BBT2409553.3.0,bus2=RML210463847.3.0,Phases=1,Linecode=CABBTG02_4_1,Length=0.017000000,Units=km
new line.RML10203878 bus1=BBT5782419.1.0,bus2=RML210203878.1.0,Phases=1,Linecode=CABBTG02_4_1,Length=0.017000000,Units=km
new line.RML10203937 bus1=BBT2035151.2.0,bus2=RML210203937.2.0,Phases=1,Linecode=CABBTG02_4_1,Length=0.017000000,Units=km
new line.RML10263222 bus1=BBT2711904.1.0,bus2=RML210263222.1.0,Phases=1,Linecode=CABBTG01_4_1,Length=0.017000000,Units=km
new line.RML10263274 bus1=BBT5559371.2.0,bus2=RML210263274.2.0,Phases=1,Linecode=CABBTG01_4_1,Length=0.017000000,Units=km
new line.RML10265555 bus1=BBT2034794.2.0,bus2=RML210265555.2.0,Phases=1,Linecode=CABBTG02_4_1,Length=0.017000000,Units=km
new line.RML10265645 bus1=BBT2035613.1.2.0,bus2=RML210265645.1.2.0,Phases=2,Linecode=CABBTG13_4_2,Length=0.017000000,Units=km
new line.RML10265671 bus1=BBT2028480.1.2.0,bus2=RML210265671.1.2.0,Phases=2,Linecode=CABBTG05_4_2,Length=0.017000000,Units=km
new line.RML10265688 bus1=BBT3221623.1.2.0,bus2=RML210265688.1.2.0,Phases=2,Linecode=CABBTG05_4_2,Length=0.017000000,Units=km
new line.RML10265904 bus1=BBT150360622.1.0,bus2=RML210265904.1.0,Phases=1,Linecode=CABBTG02_4_1,Length=0.017000000,Units=km
new line.RML10266465 bus1=BBT150488701.1.2.0,bus2=RML210266465.1.2.0,Phases=2,Linecode=CABBTG05_4_2,Length=0.017000000,Units=km
new line.RML10266495 bus1=BBT150378654.1.2.0,bus2=RML210266495.1.2.0,Phases=2,Linecode=CABBTG05_4_2,Length=0.017000000,Units=km
new line.RML10321270 bus1=BBT2025001.2.0,bus2=RML210321270.2.0,Phases=1,Linecode=CABBTG02_4_1,Length=0.017000000,Units=km
new line.RML10325769 bus1=BBT2034248.3.0,bus2=RML210325769.3.0,Phases=1,Linecode=CABBTG02_4_1,Length=0.017000000,Units=km
new line.RML10325772 bus1=BBT2029327.3.0,bus2=RML210325772.3.0,Phases=1,Linecode=CABBTG02_4_1,Length=0.017000000,Units=km
new line.RML10325812 bus1=BBT149568055.1.0,bus2=RML210325812.1.0,Phases=1,Linecode=CABBTG01_4_1,Length=0.017000000,Units=km
new line.RML10378925 bus1=BBT3572652.1.2.0,bus2=RML210378925.1.2.0,Phases=2,Linecode=CABBTG05_4_2,Length=0.017000000,Units=km
new line.RML10378934 bus1=BBT5027672.1.2.0,bus2=RML210378934.1.2.0,Phases=2,Linecode=CABBTG05_4_2,Length=0.017000000,Units=km
new line.RML10379611 bus1=BBT48126299.1.2.0,bus2=RML210379611.1.2.0,Phases=2,Linecode=CABBTG05_4_2,Length=0.017000000,Units=km
new line.RML10381445 bus1=BBT2023384.1.2.0,bus2=RML210381445.1.2.0,Phases=2,Linecode=CABBTG05_4_2,Length=0.017000000,Units=km
new line.RML10383933 bus1=BBT2024462.1.2.0,bus2=RML210383933.1.2.0,Phases=2,Linecode=CABBTG05_4_2,Length=0.017000000,Units=km
new line.RML10384065 bus1=BBT3709264.1.2.3.0,bus2=RML210384065.1.2.3.0,Phases=3,Linecode=CABBTG06_4_3,Length=0.017000000,Units=km
new line.RML10384212 bus1=BBT5859944.1.0,bus2=RML210384212.1.0,Phases=1,Linecode=CABBTG02_4_1,Length=0.017000000,Units=km
new line.RML10384525 bus1=BBT2028144.1.2.0,bus2=RML210384525.1.2.0,Phases=2,Linecode=CABBTG05_4_2,Length=0.017000000,Units=km
new line.RML10385108 bus1=BBT2024917.1.2.0,bus2=RML210385108.1.2.0,Phases=2,Linecode=CABBTG05_4_2,Length=0.017000000,Units=km
new line.RML10385582 bus1=BBT2025190.2.0,bus2=RML210385582.2.0,Phases=1,Linecode=CABBTG02_4_1,Length=0.017000000,Units=km
new line.RML10469431 bus1=BBT2025456.2.3.0,bus2=RML210469431.2.3.0,Phases=2,Linecode=CABBTG05_4_2,Length=0.017000000,Units=km
new line.RML10470002 bus1=BBT2027801.1.0,bus2=RML210470002.1.0,Phases=1,Linecode=CABBTG02_4_1,Length=0.017000000,Units=km
new line.RML10470013 bus1=BBT2711533.1.2.0,bus2=RML210470013.1.2.0,Phases=2,Linecode=CABBTG05_4_2,Length=0.017000000,Units=km
new line.RML10471015 bus1=BBT2029369.1.2.0,bus2=RML210471015.1.2.0,Phases=2,Linecode=CABBTG05_4_2,Length=0.017000000,Units=km
new line.RML10471983 bus1=BBT12514473.1.0,bus2=RML210471983.1.0,Phases=1,Linecode=CABBTG02_4_1,Length=0.017000000,Units=km
new line.RML10471984 bus1=BBT96118138.1.0,bus2=RML210471984.1.0,Phases=1,Linecode=CABBTG02_4_1,Length=0.017000000,Units=km
new line.RML10471995 bus1=BBT3569341.1.2.0,bus2=RML210471995.1.2.0,Phases=2,Linecode=CABBTG05_4_2,Length=0.017000000,Units=km
new line.RML10473694 bus1=BBT155185220.1.2.0,bus2=RML210473694.1.2.0,Phases=2,Linecode=CABBTG05_4_2,Length=0.025000000,Units=km
new line.RML10473809 bus1=BBT5436080.2.0,bus2=RML210473809.2.0,Phases=1,Linecode=CABBTG02_4_1,Length=0.017000000,Units=km
new line.RML10473866 bus1=BBT2024462.1.2.0,bus2=RML210473866.1.2.0,Phases=2,Linecode=CABBTG05_4_2,Length=0.017000000,Units=km
new line.RML10473868 bus1=BBT6360143.1.2.0,bus2=RML210473868.1.2.0,Phases=2,Linecode=CABBTG05_4_2,Length=0.017000000,Units=km
new line.RML10473964 bus1=BBT2032064.1.0,bus2=RML210473964.1.0,Phases=1,Linecode=CABBTG02_4_1,Length=0.017000000,Units=km
new line.RML10473991 bus1=BBT12515810.1.0,bus2=RML210473991.1.0,Phases=1,Linecode=CABBTG02_4_1,Length=0.017000000,Units=km
new line.RML10075261 bus1=BBT2035662.2.0,bus2=RML210075261.2.0,Phases=1,Linecode=CABBTG02_4_1,Length=0.017000000,Units=km
new line.RML10075386 bus1=BBT147240538.1.0,bus2=RML210075386.1.0,Phases=1,Linecode=CABBTG02_4_1,Length=0.017000000,Units=km
new line.RML10075396 bus1=BBT2024266.3.0,bus2=RML210075396.3.0,Phases=1,Linecode=CABBTG01_4_1,Length=0.017000000,Units=km
new line.RML10075400 bus1=BBT2029117.2.0,bus2=RML210075400.2.0,Phases=1,Linecode=CABBTG01_4_1,Length=0.017000000,Units=km
new line.RML10194817 bus1=BBT13233758.1.2.3.0,bus2=RML210194817.1.2.3.0,Phases=3,Linecode=CABBTG12_4_3,Length=0.017000000,Units=km
new line.RML10249544 bus1=BBT2032092.1.0,bus2=RML210249544.1.0,Phases=1,Linecode=CABBTG01_4_1,Length=0.017000000,Units=km
new line.RML10249696 bus1=BBT2028354.3.0,bus2=RML210249696.3.0,Phases=1,Linecode=CABBTG02_4_1,Length=0.017000000,Units=km
new line.RML10249709 bus1=BBT2025785.3.0,bus2=RML210249709.3.0,Phases=1,Linecode=CABBTG02_4_1,Length=0.017000000,Units=km
new line.RML10250082 bus1=BBT2027262.3.0,bus2=RML210250082.3.0,Phases=1,Linecode=CABBTG02_4_1,Length=0.017000000,Units=km
new line.RML10251078 bus1=BBT2031693.1.0,bus2=RML210251078.1.0,Phases=1,Linecode=CABBTG02_4_1,Length=0.017000000,Units=km
new line.RML10251101 bus1=BBT2034745.2.0,bus2=RML210251101.2.0,Phases=1,Linecode=CABBTG02_4_1,Length=0.017000000,Units=km
new line.RML10251707 bus1=BBT2025687.2.0,bus2=RML210251707.2.0,Phases=1,Linecode=CABBTG02_4_1,Length=0.017000000,Units=km
new line.RML10252324 bus1=BBT2035123.2.0,bus2=RML210252324.2.0,Phases=1,Linecode=CABBTG02_4_1,Length=0.017000000,Units=km
new line.RML10305403 bus1=BBT2023818.1.0,bus2=RML210305403.1.0,Phases=1,Linecode=CABBTG02_4_1,Length=0.017000000,Units=km
new line.RML10307133 bus1=BBT2408475.2.0,bus2=RML210307133.2.0,Phases=1,Linecode=CABBTG02_4_1,Length=0.017000000,Units=km
new line.RML10356578 bus1=BBT150542858.1.0,bus2=RML210356578.1.0,Phases=1,Linecode=CABBTG02_4_1,Length=0.017000000,Units=km
new line.RML10356598 bus1=BBT106759580.2.0,bus2=RML210356598.2.0,Phases=1,Linecode=CABBTG02_4_1,Length=0.017000000,Units=km
new line.RML10357127 bus1=BBT2034402.1.2.0,bus2=RML210357127.1.2.0,Phases=2,Linecode=CABBTG05_4_2,Length=0.017000000,Units=km
new line.RML10357709 bus1=BBT2026359.3.0,bus2=RML210357709.3.0,Phases=1,Linecode=CABBTG02_4_1,Length=0.017000000,Units=km
new line.RML10359807 bus1=BBT2035172.1.0,bus2=RML210359807.1.0,Phases=1,Linecode=CABBTG02_4_1,Length=0.017000000,Units=km
new line.RML10361630 bus1=BBT5325963.2.3.0,bus2=RML210361630.2.3.0,Phases=2,Linecode=CABBTG05_4_2,Length=0.017000000,Units=km
new line.RML10361631 bus1=BBT3569068.1.0,bus2=RML210361631.1.0,Phases=1,Linecode=CABBTG02_4_1,Length=0.017000000,Units=km
new line.RML10416137 bus1=BBT13277865.2.0,bus2=RML210416137.2.0,Phases=1,Linecode=CABBTG02_4_1,Length=0.017000000,Units=km
new line.RML10417164 bus1=BBT2031385.1.0,bus2=RML210417164.1.0,Phases=1,Linecode=CABBTG02_4_1,Length=0.017000000,Units=km
new line.RML10417947 bus1=BBT12660108.1.0,bus2=RML210417947.1.0,Phases=1,Linecode=CABBTG02_4_1,Length=0.017000000,Units=km
new line.RML10417967 bus1=BBT5027672.1.0,bus2=RML210417967.1.0,Phases=1,Linecode=CABBTG02_4_1,Length=0.017000000,Units=km
new line.RML10420434 bus1=BBT5782419.2.0,bus2=RML210420434.2.0,Phases=1,Linecode=CABBTG02_4_1,Length=0.017000000,Units=km
new line.RML10420823 bus1=BBT2028214.2.3.0,bus2=RML210420823.2.3.0,Phases=2,Linecode=CABBTG05_4_2,Length=0.017000000,Units=km
new line.RML10421045 bus1=BBT94373773.2.0,bus2=RML210421045.2.0,Phases=1,Linecode=CABBTG02_4_1,Length=0.017000000,Units=km
new line.RML10475420 bus1=BBT2024273.1.0,bus2=RML210475420.1.0,Phases=1,Linecode=CABBTG02_4_1,Length=0.017000000,Units=km
new line.RML10475421 bus1=BBT2030783.3.0,bus2=RML210475421.3.0,Phases=1,Linecode=CABBTG02_4_1,Length=0.017000000,Units=km
new line.RML10478578 bus1=BBT2033310.1.2.3.0,bus2=RML210478578.1.2.3.0,Phases=3,Linecode=CABBTG06_4_3,Length=0.017000000,Units=km
new line.RML10479236 bus1=BBT106759580.1.2.0,bus2=RML210479236.1.2.0,Phases=2,Linecode=CABBTG05_4_2,Length=0.030000000,Units=km
new line.RML10479237 bus1=BBT2034857.1.0,bus2=RML210479237.1.0,Phases=1,Linecode=CABBTG02_4_1,Length=0.025000000,Units=km
new line.RML10479252 bus1=BBT2035592.1.0,bus2=RML210479252.1.0,Phases=1,Linecode=CABBTG02_4_1,Length=0.022000000,Units=km
new line.RML10479300 bus1=BBT106759580.1.2.0,bus2=RML210479300.1.2.0,Phases=2,Linecode=CABBTG05_4_2,Length=0.011000000,Units=km
new line.RML10479412 bus1=BBT108056911.2.0,bus2=RML210479412.2.0,Phases=1,Linecode=CABBTG02_4_1,Length=0.030000000,Units=km
new line.RML10538655 bus1=BBT150488702.1.0,bus2=RML210538655.1.0,Phases=1,Linecode=CABBT802_4_1,Length=0.022000000,Units=km
new line.RML10040938 bus1=BBT138080443.1.0,bus2=RML210040938.1.0,Phases=1,Linecode=CABBTG02_4_1,Length=0.017000000,Units=km
new line.RML10115652 bus1=BBT2711722.2.0,bus2=RML210115652.2.0,Phases=1,Linecode=CABBTG02_4_1,Length=0.026000000,Units=km
new line.RML10179775 bus1=BBT2024903.2.3.0,bus2=RML210179775.2.3.0,Phases=2,Linecode=CABBTG05_4_2,Length=0.017000000,Units=km
new line.RML10179788 bus1=BBT2027150.1.0,bus2=RML210179788.1.0,Phases=1,Linecode=CABBTG02_4_1,Length=0.017000000,Units=km
new line.RML10179796 bus1=BBT2025162.1.0,bus2=RML210179796.1.0,Phases=1,Linecode=CABBTG02_4_1,Length=0.017000000,Units=km
new line.RML10181059 bus1=BBT2035123.2.0,bus2=RML210181059.2.0,Phases=1,Linecode=CABBTG02_4_1,Length=0.017000000,Units=km
new line.RML10241320 bus1=BBT2034815.1.2.0,bus2=RML210241320.1.2.0,Phases=2,Linecode=CABBTG04_4_2,Length=0.017000000,Units=km
new line.RML10241321 bus1=BBT2026282.1.2.3.0,bus2=RML210241321.1.2.3.0,Phases=3,Linecode=CABBTG06_4_3,Length=0.017000000,Units=km
new line.RML10241358 bus1=BBT2027738.1.2.0,bus2=RML210241358.1.2.0,Phases=2,Linecode=CABBTG05_4_2,Length=0.017000000,Units=km
new line.RML10242539 bus1=BBT2027878.3.0,bus2=RML210242539.3.0,Phases=1,Linecode=CABBTG02_4_1,Length=0.017000000,Units=km
new line.RML10243312 bus1=BBT2029915.2.0,bus2=RML210243312.2.0,Phases=1,Linecode=CABBTG02_4_1,Length=0.017000000,Units=km
new line.RML10297289 bus1=BBT108060831.1.0,bus2=RML210297289.1.0,Phases=1,Linecode=CABBTG02_4_1,Length=0.017000000,Units=km
new line.RML10297391 bus1=BBT147181619.1.0,bus2=RML210297391.1.0,Phases=1,Linecode=CABBTG02_4_1,Length=0.017000000,Units=km
new line.RML10297394 bus1=BBT2025743.2.0,bus2=RML210297394.2.0,Phases=1,Linecode=CABBTG02_4_1,Length=0.017000000,Units=km
new line.RML10297410 bus1=BBT2034857.1.2.0,bus2=RML210297410.1.2.0,Phases=2,Linecode=CABBTG05_4_2,Length=0.017000000,Units=km
new line.RML10300046 bus1=BBT2023713.3.0,bus2=RML210300046.3.0,Phases=1,Linecode=CABBTG02_4_1,Length=0.017000000,Units=km
new line.RML10300052 bus1=BBT99486650.2.0,bus2=RML210300052.2.0,Phases=1,Linecode=CABBTG02_4_1,Length=0.017000000,Units=km
new line.RML10300053 bus1=BBT2711904.1.0,bus2=RML210300053.1.0,Phases=1,Linecode=CABBTG02_4_1,Length=0.017000000,Units=km
new line.RML10300054 bus1=BBT5682515.1.0,bus2=RML210300054.1.0,Phases=1,Linecode=CABBTG02_4_1,Length=0.017000000,Units=km
new line.RML10300055 bus1=BBT5682508.1.2.0,bus2=RML210300055.1.2.0,Phases=2,Linecode=CABBTG05_4_2,Length=0.017000000,Units=km
new line.RML10372904 bus1=BBT3569341.2.0,bus2=RML210372904.2.0,Phases=1,Linecode=CABBTG02_4_1,Length=0.017000000,Units=km
new line.RML10373285 bus1=BBT140029089.1.2.0,bus2=RML210373285.1.2.0,Phases=2,Linecode=CABBTG05_4_2,Length=0.017000000,Units=km
new line.RML10374621 bus1=BBT2026555.2.3.0,bus2=RML210374621.2.3.0,Phases=2,Linecode=CABBTG05_4_2,Length=0.017000000,Units=km
new line.RML10374692 bus1=BBT5860567.2.0,bus2=RML210374692.2.0,Phases=1,Linecode=CABBTG02_4_1,Length=0.017000000,Units=km
new line.RML10377970 bus1=BBT2034829.1.2.0,bus2=RML210377970.1.2.0,Phases=2,Linecode=CABBTG05_4_2,Length=0.017000000,Units=km
new line.RML10377989 bus1=BBT2023454.1.2.0,bus2=RML210377989.1.2.0,Phases=2,Linecode=CABBTG05_4_2,Length=0.017000000,Units=km
new line.RML10378034 bus1=BBT2025148.1.2.0,bus2=RML210378034.1.2.0,Phases=2,Linecode=CABBTG05_4_2,Length=0.017000000,Units=km
new line.RML10430110 bus1=BBT149568055.3.0,bus2=RML210430110.3.0,Phases=1,Linecode=CABBTG02_4_1,Length=0.017000000,Units=km
new line.RML10434329 bus1=BBT12514473.1.0,bus2=RML210434329.1.0,Phases=1,Linecode=CABBTG02_4_1,Length=0.017000000,Units=km
new line.RML10436886 bus1=BBT2023895.2.0,bus2=RML210436886.2.0,Phases=1,Linecode=CABBTG02_4_1,Length=0.017000000,Units=km
new line.RML10481956 bus1=BBT2023790.1.0,bus2=RML210481956.1.0,Phases=1,Linecode=CABBTG02_4_1,Length=0.017000000,Units=km
new line.RML10482739 bus1=BBT2025183.3.0,bus2=RML210482739.3.0,Phases=1,Linecode=CABBTG02_4_1,Length=0.006000000,Units=km
new line.RML10482966 bus1=BBT5682515.1.0,bus2=RML210482966.1.0,Phases=1,Linecode=CABBTG02_4_1,Length=0.030000000,Units=km
new line.RML10483129 bus1=BBT2025897.2.0,bus2=RML210483129.2.0,Phases=1,Linecode=CABBTG02_4_1,Length=0.026000000,Units=km
new line.RML10484418 bus1=BBT2711904.2.0,bus2=RML210484418.2.0,Phases=1,Linecode=CABBTG02_4_1,Length=0.013000000,Units=km
new line.RML10487884 bus1=BBT2839213.2.0,bus2=RML210487884.2.0,Phases=1,Linecode=CABBTG02_4_1,Length=0.009000000,Units=km
new line.RML10487909 bus1=BBT2024161.2.0,bus2=RML210487909.2.0,Phases=1,Linecode=CABBTG02_4_1,Length=0.025000000,Units=km
new line.RML10547083 bus1=BBT108056911.2.0,bus2=RML210547083.2.0,Phases=1,Linecode=CABBTG02_4_1,Length=0.029000000,Units=km
new line.RML10138105 bus1=BBT2711897.1.0,bus2=RML210138105.1.0,Phases=1,Linecode=CABBTG01_4_1,Length=0.017000000,Units=km
new line.RML10192710 bus1=BBT149568093.2.0,bus2=RML210192710.2.0,Phases=1,Linecode=CABBTG02_4_1,Length=0.017000000,Units=km
new line.RML10192713 bus1=BBT149568093.1.0,bus2=RML210192713.1.0,Phases=1,Linecode=CABBTG02_4_1,Length=0.017000000,Units=km
new line.RML10194007 bus1=BBT3221483.2.0,bus2=RML210194007.2.0,Phases=1,Linecode=CABBTG02_4_1,Length=0.017000000,Units=km
new line.RML10194069 bus1=BBT94373773.1.2.0,bus2=RML210194069.1.2.0,Phases=2,Linecode=CABBTG05_4_2,Length=0.017000000,Units=km
new line.RML10253499 bus1=BBT2030118.3.0,bus2=RML210253499.3.0,Phases=1,Linecode=CABBTG02_4_1,Length=0.017000000,Units=km
new line.RML10254390 bus1=BBT2711911.2.0,bus2=RML210254390.2.0,Phases=1,Linecode=CABBTG02_4_1,Length=0.017000000,Units=km
new line.RML10254588 bus1=BBT6360150.1.0,bus2=RML210254588.1.0,Phases=1,Linecode=CABBTG02_4_1,Length=0.017000000,Units=km
new line.RML10254601 bus1=BBT2026030.2.0,bus2=RML210254601.2.0,Phases=1,Linecode=CABBTG02_4_1,Length=0.017000000,Units=km
new line.RML10254608 bus1=BBT2407929.3.0,bus2=RML210254608.3.0,Phases=1,Linecode=CABBTG02_4_1,Length=0.017000000,Units=km
new line.RML10254629 bus1=BBT2030475.3.0,bus2=RML210254629.3.0,Phases=1,Linecode=CABBTG02_4_1,Length=0.017000000,Units=km
new line.RML10254831 bus1=BBT3221343.1.0,bus2=RML210254831.1.0,Phases=1,Linecode=CABBTG02_4_1,Length=0.017000000,Units=km