new load.3000947066M1 bus1=RML203066419.1.0,Phases=1,kv=0.127,kW=0.45168,pf=0.92,Vminpu=0.92,Vmaxpu=1.5,model=1,daily=RES1_2,status=variable
new load.3000947067M1 bus1=RML203066412.2.0,Phases=1,kv=0.127,kW=0.31336,pf=0.92,Vminpu=0.92,Vmaxpu=1.5,model=1,daily=RES1_17,status=variable
new load.3000947068M1 bus1=RML203066433.3.0,Phases=1,kv=0.127,kW=0.74728,pf=0.92,Vminpu=0.92,Vmaxpu=1.5,model=1,daily=RES1_3,status=variable
new load.3000947069M1 bus1=RML203066426.2.0,Phases=1,kv=0.127,kW=1.59202,pf=0.92,Vminpu=0.92,Vmaxpu=1.5,model=1,daily=RES2_7,status=variable
new load.3000946381M1 bus1=RML203052160.1.3.0,Phases=2,kv=0.22,kW=0.32384,pf=0.92,Vminpu=0.92,Vmaxpu=1.5,model=1,daily=RES1_18,status=variable
new load.3000946382M1 bus1=RML203052153.1.2.0,Phases=2,kv=0.22,kW=0.66624,pf=0.92,Vminpu=0.92,Vmaxpu=1.5,model=1,daily=RES2_10,status=variable
new load.3000946364M1 bus1=RML203052139.3.0,Phases=1,kv=0.127,kW=0.74062,pf=0.92,Vminpu=0.92,Vmaxpu=1.5,model=1,daily=RES2_1,status=variable
new load.3000946365M1 bus1=RML203052153.1.2.0,Phases=2,kv=0.22,kW=1.62168,pf=0.92,Vminpu=0.92,Vmaxpu=1.5,model=1,daily=RES1_4,status=variable
new load.3000946024M1 bus1=RML203045405.2.3.0,Phases=2,kv=0.22,kW=0.60748,pf=0.92,Vminpu=0.92,Vmaxpu=1.5,model=1,daily=RES2_9,status=variable
new load.3000946025M1 bus1=RML203045328.2.0,Phases=1,kv=0.127,kW=2.50392,pf=0.92,Vminpu=0.92,Vmaxpu=1.5,model=1,daily=RES1_2,status=variable
new load.3000946026M1 bus1=RML203045335.2.0,Phases=1,kv=0.127,kW=0.38854,pf=0.92,Vminpu=0.92,Vmaxpu=1.5,model=1,daily=RES2_26,status=variable
new load.3000946027M1 bus1=RML203045363.1.0,Phases=1,kv=0.127,kW=0.80476,pf=0.92,Vminpu=0.92,Vmaxpu=1.5,model=1,daily=RES1_3,status=variable
new load.3000946029M1 bus1=RML203045377.3.0,Phases=1,kv=0.127,kW=0.54664,pf=0.92,Vminpu=0.92,Vmaxpu=1.5,model=1,daily=RES1_1,status=variable
new load.3000946134M1 bus1=RML203045510.2.0,Phases=1,kv=0.127,kW=3.9878,pf=0.92,Vminpu=0.92,Vmaxpu=1.5,model=1,daily=RES4_10,status=variable
new load.3000946137M1 bus1=RML203045468.1.2.0,Phases=2,kv=0.22,kW=0.53854,pf=0.92,Vminpu=0.92,Vmaxpu=1.5,model=1,daily=COM1_5,status=variable
new load.3000946138M1 bus1=RML203586659.1.0,Phases=1,kv=0.127,kW=1.02054,pf=0.92,Vminpu=0.92,Vmaxpu=1.5,model=1,daily=RES1_6,status=variable
new load.3000946139M1 bus1=RML203045461.2.3.0,Phases=2,kv=0.22,kW=0.91842,pf=0.92,Vminpu=0.92,Vmaxpu=1.5,model=1,daily=RES1_5,status=variable
new load.3000946140M1 bus1=RML203045475.1.2.3.0,Phases=3,kv=0.22,kW=0.6172,pf=0.92,Vminpu=0.92,Vmaxpu=1.5,model=1,daily=RES2_1,status=variable
new load.3000946160M1 bus1=RML203045496.1.2.0,Phases=2,kv=0.22,kW=0.70762,pf=0.92,Vminpu=0.92,Vmaxpu=1.5,model=1,daily=COM1_13,status=variable
new load.3003273727M1 bus1=RML203045356.1.2.3.0,Phases=3,kv=0.22,kW=3.11046,pf=0.92,Vminpu=0.92,Vmaxpu=1.5,model=1,daily=COM2_3,status=variable
new load.3003273745M1 bus1=RML203045489.1.0,Phases=1,kv=0.127,kW=0.09314,pf=0.92,Vminpu=0.92,Vmaxpu=1.5,model=1,daily=COM1_25,status=variable
new load.3003273747M1 bus1=RML203045489.1.0,Phases=1,kv=0.127,kW=1.90374,pf=0.92,Vminpu=0.92,Vmaxpu=1.5,model=1,daily=COM1_15,status=variable
new load.3003273807M1 bus1=RML203045433.1.2.3.0,Phases=3,kv=0.22,kW=3.4193,pf=0.92,Vminpu=0.92,Vmaxpu=1.5,model=1,daily=COM2_10,status=variable
new load.3003273838M1 bus1=RML203045951.1.2.3.0,Phases=3,kv=0.22,kW=0.02046,pf=0.92,Vminpu=0.92,Vmaxpu=1.5,model=1,daily=SERVP4_4,status=variable
new load.3000946053M1 bus1=RML203045986.2.0,Phases=1,kv=0.127,kW=0.77028,pf=0.92,Vminpu=0.92,Vmaxpu=1.5,model=1,daily=RES1_3,status=variable
new load.3000946054M1 bus1=RML203045993.1.0,Phases=1,kv=0.127,kW=0.6368,pf=0.92,Vminpu=0.92,Vmaxpu=1.5,model=1,daily=RES1_14,status=variable
new load.3000946056M1 bus1=RML203046014.1.3.0,Phases=2,kv=0.22,kW=0.3596,pf=0.92,Vminpu=0.92,Vmaxpu=1.5,model=1,daily=RES1_22,status=variable
new load.3000946058M1 bus1=RML203045965.2.0,Phases=1,kv=0.127,kW=0.88302,pf=0.92,Vminpu=0.92,Vmaxpu=1.5,model=1,daily=RES1_1,status=variable
new load.3000946059M1 bus1=RML203046021.2.3.0,Phases=2,kv=0.22,kW=0.08034,pf=0.92,Vminpu=0.92,Vmaxpu=1.5,model=1,daily=RES1_11,status=variable
new load.3000946060M1 bus1=RML203046028.1.0,Phases=1,kv=0.127,kW=0.61102,pf=0.92,Vminpu=0.92,Vmaxpu=1.5,model=1,daily=RES2_1,status=variable
new load.3000946061M1 bus1=RML203046000.1.0,Phases=1,kv=0.127,kW=0.09714,pf=0.92,Vminpu=0.92,Vmaxpu=1.5,model=1,daily=RES1_14,status=variable
new load.3000946070M1 bus1=RML203046070.1.0,Phases=1,kv=0.127,kW=0.64382,pf=0.92,Vminpu=0.92,Vmaxpu=1.5,model=1,daily=RES1_3,status=variable
new load.3000946071M1 bus1=RML203045972.1.2.0,Phases=2,kv=0.22,kW=0.8561,pf=0.92,Vminpu=0.92,Vmaxpu=1.5,model=1,daily=RES2_7,status=variable
new load.3000946072M1 bus1=RML203046056.3.0,Phases=1,kv=0.127,kW=1.01268,pf=0.92,Vminpu=0.92,Vmaxpu=1.5,model=1,daily=RES2_10,status=variable
new load.3000946073M1 bus1=RML203046084.1.0,Phases=1,kv=0.127,kW=0.4599,pf=0.92,Vminpu=0.92,Vmaxpu=1.5,model=1,daily=RES1_7,status=variable
new load.3003273834M1 bus1=RML203175052.1.2.3.0,Phases=3,kv=0.22,kW=20.4874,pf=0.92,Vminpu=0.92,Vmaxpu=1.5,model=1,daily=COM4_15,status=variable
new load.3000946075M1 bus1=RML203047694.1.3.0,Phases=2,kv=0.22,kW=0.77564,pf=0.92,Vminpu=0.92,Vmaxpu=1.5,model=1,daily=RES2_6,status=variable
new load.3000946077M1 bus1=RML203047708.3.0,Phases=1,kv=0.127,kW=0.8034,pf=0.92,Vminpu=0.92,Vmaxpu=1.5,model=1,daily=RES1_11,status=variable
new load.3000946078M1 bus1=RML203047680.1.0,Phases=1,kv=0.127,kW=0.69954,pf=0.92,Vminpu=0.92,Vmaxpu=1.5,model=1,daily=RES2_10,status=variable
new load.3000946079M1 bus1=RML203047673.2.0,Phases=1,kv=0.127,kW=0.83068,pf=0.92,Vminpu=0.92,Vmaxpu=1.5,model=1,daily=RES1_6,status=variable
new load.3003273813M1 bus1=RML203048065.2.0,Phases=1,kv=0.127,kW=0.81854,pf=0.92,Vminpu=0.92,Vmaxpu=1.5,model=1,daily=COM1_23,status=variable
new load.3003273809M1 bus1=RML203048345.1.2.3.0,Phases=3,kv=0.22,kW=3.1796,pf=0.92,Vminpu=0.92,Vmaxpu=1.5,model=1,daily=COM1_26,status=variable
new load.3000946186M1 bus1=RML203048548.1.2.3.0,Phases=3,kv=0.22,kW=1.85778,pf=0.92,Vminpu=0.92,Vmaxpu=1.5,model=1,daily=RES4_9,status=variable
new load.3000946187M1 bus1=RML203048534.2.0,Phases=1,kv=0.127,kW=2.84034,pf=0.92,Vminpu=0.92,Vmaxpu=1.5,model=1,daily=COM2_20,status=variable
new load.3000946188M1 bus1=RML203048541.3.0,Phases=1,kv=0.127,kW=0.08396,pf=0.92,Vminpu=0.92,Vmaxpu=1.5,model=1,daily=RES1_16,status=variable
new load.3000946191M1 bus1=RML203048520.2.3.0,Phases=2,kv=0.22,kW=1.46504,pf=0.92,Vminpu=0.92,Vmaxpu=1.5,model=1,daily=COM1_21,status=variable
new load.3000946214M1 bus1=RML203048366.1.2.3.0,Phases=3,kv=0.22,kW=0.14666,pf=0.92,Vminpu=0.92,Vmaxpu=1.5,model=1,daily=COM1_17,status=variable
new load.3000946219M1 bus1=RML203048261.1.2.0,Phases=2,kv=0.22,kW=1.8011,pf=0.92,Vminpu=0.92,Vmaxpu=1.5,model=1,daily=RES1_20,status=variable
new load.3000946220M1 bus1=RML203048457.3.0,Phases=1,kv=0.127,kW=0.18494,pf=0.92,Vminpu=0.92,Vmaxpu=1.5,model=1,daily=RES1_17,status=variable
new load.3000946221M1 bus1=RML203048436.1.2.0,Phases=2,kv=0.22,kW=1.26462,pf=0.92,Vminpu=0.92,Vmaxpu=1.5,model=1,daily=RES1_3,status=variable
new load.3000946391M1 bus1=RML203048450.3.0,Phases=1,kv=0.127,kW=0.12684,pf=0.92,Vminpu=0.92,Vmaxpu=1.5,model=1,daily=COM1_3,status=variable
new load.3000946392M1 bus1=RML203048443.1.3.0,Phases=2,kv=0.22,kW=0.2209,pf=0.92,Vminpu=0.92,Vmaxpu=1.5,model=1,daily=RES1_17,status=variable
new load.3000946397M1 bus1=RML203048429.1.2.0,Phases=2,kv=0.22,kW=1.44078,pf=0.92,Vminpu=0.92,Vmaxpu=1.5,model=1,daily=COM2_7,status=variable
new load.3000946398M1 bus1=RML203048422.3.0,Phases=1,kv=0.127,kW=0.58634,pf=0.92,Vminpu=0.92,Vmaxpu=1.5,model=1,daily=RES2_1,status=variable
new load.3000946400M1 bus1=RML203048415.1.3.0,Phases=2,kv=0.22,kW=0.45496,pf=0.92,Vminpu=0.92,Vmaxpu=1.5,model=1,daily=COM1_25,status=variable
new load.3000946401M1 bus1=RML203048478.2.0,Phases=1,kv=0.127,kW=0.86786,pf=0.92,Vminpu=0.92,Vmaxpu=1.5,model=1,daily=RES2_5,status=variable
new load.3000946402M1 bus1=RML203155620.2.0,Phases=1,kv=0.127,kW=0.27858,pf=0.92,Vminpu=0.92,Vmaxpu=1.5,model=1,daily=RES1_10,status=variable
new load.3000946403M1 bus1=RML203048499.2.0,Phases=1,kv=0.127,kW=0.58004,pf=0.92,Vminpu=0.92,Vmaxpu=1.5,model=1,daily=COM1_14,status=variable
new load.3000946404M1 bus1=RML203048492.3.0,Phases=1,kv=0.127,kW=2.80044,pf=0.92,Vminpu=0.92,Vmaxpu=1.5,model=1,daily=RES1_15,status=variable
new load.3000946407M1 bus1=RML203048289.3.0,Phases=1,kv=0.127,kW=0.25072,pf=0.92,Vminpu=0.92,Vmaxpu=1.5,model=1,daily=RES1_10,status=variable
new load.3000946408M1 bus1=RML203048289.3.0,Phases=1,kv=0.127,kW=0.66978,pf=0.92,Vminpu=0.92,Vmaxpu=1.5,model=1,daily=RES1_24,status=variable
new load.3000946409M1 bus1=RML203048296.2.3.0,Phases=2,kv=0.22,kW=0.70964,pf=0.92,Vminpu=0.92,Vmaxpu=1.5,model=1,daily=COM1_21,status=variable
new load.3000946410M1 bus1=RML203048282.1.0,Phases=1,kv=0.127,kW=0.24188,pf=0.92,Vminpu=0.92,Vmaxpu=1.5,model=1,daily=COM1_6,status=variable
new load.3000946411M1 bus1=RML203048310.3.0,Phases=1,kv=0.127,kW=1.03688,pf=0.92,Vminpu=0.92,Vmaxpu=1.5,model=1,daily=RES3_16,status=variable
new load.3000946412M1 bus1=RML203048303.1.2.3.0,Phases=3,kv=0.22,kW=1.27612,pf=0.92,Vminpu=0.92,Vmaxpu=1.5,model=1,daily=RES1_3,status=variable
new load.3000946413M1 bus1=RML203048324.2.3.0,Phases=2,kv=0.22,kW=1.37638,pf=0.92,Vminpu=0.92,Vmaxpu=1.5,model=1,daily=RES1_4,status=variable
new load.3000946414M1 bus1=RML203048317.1.0,Phases=1,kv=0.127,kW=0.11308,pf=0.92,Vminpu=0.92,Vmaxpu=1.5,model=1,daily=COM1_13,status=variable
new load.3000946415M1 bus1=RML203048317.1.0,Phases=1,kv=0.127,kW=0.49332,pf=0.92,Vminpu=0.92,Vmaxpu=1.5,model=1,daily=RES1_16,status=variable
new load.3000946416M1 bus1=RML203048352.3.0,Phases=1,kv=0.127,kW=0.7659,pf=0.92,Vminpu=0.92,Vmaxpu=1.5,model=1,daily=RES1_2,status=variable
new load.3000946417M1 bus1=RML203048352.3.0,Phases=1,kv=0.127,kW=0.73588,pf=0.92,Vminpu=0.92,Vmaxpu=1.5,model=1,daily=RES1_4,status=variable
new load.3000946419M1 bus1=RML203048345.1.2.3.0,Phases=3,kv=0.22,kW=0.20988,pf=0.92,Vminpu=0.92,Vmaxpu=1.5,model=1,daily=COM1_4,status=variable
new load.3000946420M1 bus1=RML203048345.1.2.3.0,Phases=3,kv=0.22,kW=0.37424,pf=0.92,Vminpu=0.92,Vmaxpu=1.5,model=1,daily=COM1_10,status=variable
new load.3000946421M1 bus1=RML203048345.1.2.3.0,Phases=3,kv=0.22,kW=3.12252,pf=0.92,Vminpu=0.92,Vmaxpu=1.5,model=1,daily=RES1_2,status=variable
new load.3000946422M1 bus1=RML203048373.2.0,Phases=1,kv=0.127,kW=0.10762,pf=0.92,Vminpu=0.92,Vmaxpu=1.5,model=1,daily=RES1_19,status=variable
new load.3000946423M1 bus1=RML203048394.1.2.3.0,Phases=3,kv=0.22,kW=0.20888,pf=0.92,Vminpu=0.92,Vmaxpu=1.5,model=1,daily=COM1_17,status=variable
new load.3000946427M1 bus1=RML204167687.1.2.3.0,Phases=3,kv=0.22,kW=1.28442,pf=0.92,Vminpu=0.92,Vmaxpu=1.5,model=1,daily=RES1_15,status=variable
new load.3000946906M1 bus1=RML203049486.1.0,Phases=1,kv=0.127,kW=0.7904,pf=0.92,Vminpu=0.92,Vmaxpu=1.5,model=1,daily=RES1_4,status=variable
new load.3000946907M1 bus1=RML203049850.3.0,Phases=1,kv=0.127,kW=0.88302,pf=0.92,Vminpu=0.92,Vmaxpu=1.5,model=1,daily=RES1_1,status=variable
new load.3000946909M1 bus1=RML203049444.2.0,Phases=1,kv=0.127,kW=1.07816,pf=0.92,Vminpu=0.92,Vmaxpu=1.5,model=1,daily=RES1_8,status=variable
new load.3000946911M1 bus1=RML203049724.2.0,Phases=1,kv=0.127,kW=0.21602,pf=0.92,Vminpu=0.92,Vmaxpu=1.5,model=1,daily=RES1_2,status=variable
new load.3000946913M1 bus1=RML203049717.3.0,Phases=1,kv=0.127,kW=0.96572,pf=0.92,Vminpu=0.92,Vmaxpu=1.5,model=1,daily=RES1_3,status=variable
new load.3000946915M1 bus1=RML203049528.3.0,Phases=1,kv=0.127,kW=0.72306,pf=0.92,Vminpu=0.92,Vmaxpu=1.5,model=1,daily=RES1_11,status=variable
new load.3000946916M1 bus1=RML203049297.2.0,Phases=1,kv=0.127,kW=0.78842,pf=0.92,Vminpu=0.92,Vmaxpu=1.5,model=1,daily=RES1_1,status=variable
new load.3000946917M1 bus1=RML203049388.2.0,Phases=1,kv=0.127,kW=0.37146,pf=0.92,Vminpu=0.92,Vmaxpu=1.5,model=1,daily=RES2_26,status=variable
new load.3000946919M1 bus1=RML203049374.2.0,Phases=1,kv=0.127,kW=0.32316,pf=0.92,Vminpu=0.92,Vmaxpu=1.5,model=1,daily=RES1_10,status=variable
new load.3000946920M1 bus1=RML203049402.1.0,Phases=1,kv=0.127,kW=0.14898,pf=0.92,Vminpu=0.92,Vmaxpu=1.5,model=1,daily=RES1_17,status=variable
new load.3000946921M1 bus1=RML203049773.2.0,Phases=1,kv=0.127,kW=1.16346,pf=0.92,Vminpu=0.92,Vmaxpu=1.5,model=1,daily=RES2_6,status=variable
new load.3000946923M1 bus1=RML203049780.2.0,Phases=1,kv=0.127,kW=0.97414,pf=0.92,Vminpu=0.92,Vmaxpu=1.5,model=1,daily=RES1_11,status=variable
new load.3000946928M1 bus1=RML203049626.2.0,Phases=1,kv=0.127,kW=0.6052,pf=0.92,Vminpu=0.92,Vmaxpu=1.5,model=1,daily=RES1_6,status=variable
new load.3000946930M1 bus1=RML203049423.3.0,Phases=1,kv=0.127,kW=1.667,pf=0.92,Vminpu=0.92,Vmaxpu=1.5,model=1,daily=RES1_3,status=variable
new load.3003357582M1 bus1=RML203049696.3.0,Phases=1,kv=0.127,kW=0.20034,pf=0.92,Vminpu=0.92,Vmaxpu=1.5,model=1,daily=RES1_17,status=variable
new load.3003273738M1 bus1=RML203049661.1.2.3.0,Phases=3,kv=0.22,kW=11.67884,pf=0.92,Vminpu=0.92,Vmaxpu=1.5,model=1,daily=COM2_14,status=variable
new load.3000946902M1 bus1=RML203049472.1.0,Phases=1,kv=0.127,kW=0.29384,pf=0.92,Vminpu=0.92,Vmaxpu=1.5,model=1,daily=RES1_18,status=variable
new load.3000946942M1 bus1=RML203049710.3.0,Phases=1,kv=0.127,kW=0.88724,pf=0.92,Vminpu=0.92,Vmaxpu=1.5,model=1,daily=RES1_26,status=variable
new load.3000946943M1 bus1=RML203049689.3.0,Phases=1,kv=0.127,kW=0.69274,pf=0.92,Vminpu=0.92,Vmaxpu=1.5,model=1,daily=RES1_16,status=variable
new load.3000946944M1 bus1=RML203049318.2.0,Phases=1,kv=0.127,kW=0.273,pf=0.92,Vminpu=0.92,Vmaxpu=1.5,model=1,daily=RES1_10,status=variable
new load.3000946945M1 bus1=RML203049325.2.0,Phases=1,kv=0.127,kW=1.1685,pf=0.92,Vminpu=0.92,Vmaxpu=1.5,model=1,daily=RES1_2,status=variable
new load.3000946826M1 bus1=RML203049892.2.0,Phases=1,kv=0.127,kW=0.48428,pf=0.92,Vminpu=0.92,Vmaxpu=1.5,model=1,daily=RES1_15,status=variable
new load.3000947076M1 bus1=RML210249709.3.0,Phases=1,kv=0.127,kW=0.1571,pf=0.92,Vminpu=0.92,Vmaxpu=1.5,model=1,daily=RES1_2,status=variable
new load.3000946856M1 bus1=RML203050053.2.0,Phases=1,kv=0.127,kW=0.05068,pf=0.92,Vminpu=0.92,Vmaxpu=1.5,model=1,daily=RES2_20,status=variable
new load.3000946857M1 bus1=RML203049976.1.0,Phases=1,kv=0.127,kW=1.19854,pf=0.92,Vminpu=0.92,Vmaxpu=1.5,model=1,daily=RES1_6,status=variable
new load.3000946858M1 bus1=RML203049983.1.0,Phases=1,kv=0.127,kW=0.43152,pf=0.92,Vminpu=0.92,Vmaxpu=1.5,model=1,daily=RES1_17,status=variable
new load.3000946859M1 bus1=RML203049969.3.0,Phases=1,kv=0.127,kW=0.22584,pf=0.92,Vminpu=0.92,Vmaxpu=1.5,model=1,daily=RES1_2,status=variable
new load.3000946860M1 bus1=RML203049955.2.0,Phases=1,kv=0.127,kW=0.59334,pf=0.92,Vminpu=0.92,Vmaxpu=1.5,model=1,daily=RES1_6,status=variable
new load.3000946861M1 bus1=RML203050144.2.0,Phases=1,kv=0.127,kW=1.25374,pf=0.92,Vminpu=0.92,Vmaxpu=1.5,model=1,daily=RES1_4,status=variable
new load.3000946862M1 bus1=RML203050151.2.0,Phases=1,kv=0.127,kW=0.51646,pf=0.92,Vminpu=0.92,Vmaxpu=1.5,model=1,daily=RES1_26,status=variable
new load.3000946863M1 bus1=RML203050046.3.0,Phases=1,kv=0.127,kW=0.37928,pf=0.92,Vminpu=0.92,Vmaxpu=1.5,model=1,daily=RES1_23,status=variable
new load.3000946864M1 bus1=RML203050025.2.0,Phases=1,kv=0.127,kW=0.65412,pf=0.92,Vminpu=0.92,Vmaxpu=1.5,model=1,daily=RES1_4,status=variable
new load.3000946865M1 bus1=RML203050032.1.0,Phases=1,kv=0.127,kW=0.20548,pf=0.92,Vminpu=0.92,Vmaxpu=1.5,model=1,daily=RES1_17,status=variable
new load.3000946828M1 bus1=RML203051306.2.0,Phases=1,kv=0.127,kW=1.16196,pf=0.92,Vminpu=0.92,Vmaxpu=1.5,model=1,daily=RES2_19,status=variable
new load.3000946829M1 bus1=RML203051299.2.0,Phases=1,kv=0.127,kW=0.26512,pf=0.92,Vminpu=0.92,Vmaxpu=1.5,model=1,daily=RES1_24,status=variable
new load.3000946830M1 bus1=RML203049934.1.0,Phases=1,kv=0.127,kW=0.84556,pf=0.92,Vminpu=0.92,Vmaxpu=1.5,model=1,daily=RES2_1,status=variable
new load.3000946831M1 bus1=RML203049941.2.0,Phases=1,kv=0.127,kW=0.57934,pf=0.92,Vminpu=0.92,Vmaxpu=1.5,model=1,daily=RES1_2,status=variable
new load.3000946837M1 bus1=RML203049913.2.0,Phases=1,kv=0.127,kW=0.41416,pf=0.92,Vminpu=0.92,Vmaxpu=1.5,model=1,daily=RES2_26,status=variable
new load.3000946838M1 bus1=RML203049906.3.0,Phases=1,kv=0.127,kW=0.16142,pf=0.92,Vminpu=0.92,Vmaxpu=1.5,model=1,daily=RES1_19,status=variable
new load.3000946839M1 bus1=RML203049899.2.0,Phases=1,kv=0.127,kW=0.312,pf=0.92,Vminpu=0.92,Vmaxpu=1.5,model=1,daily=RES1_10,status=variable
new load.3000946840M1 bus1=RML203049920.1.0,Phases=1,kv=0.127,kW=0.48204,pf=0.92,Vminpu=0.92,Vmaxpu=1.5,model=1,daily=RES1_11,status=variable
new load.3000946841M1 bus1=RML203050004.2.0,Phases=1,kv=0.127,kW=0.80698,pf=0.92,Vminpu=0.92,Vmaxpu=1.5,model=1,daily=RES1_7,status=variable
new load.3000946842M1 bus1=RML203049997.1.0,Phases=1,kv=0.127,kW=0.6152,pf=0.92,Vminpu=0.92,Vmaxpu=1.5,model=1,daily=RES1_14,status=variable
new load.3000946843M1 bus1=RML203049927.3.0,Phases=1,kv=0.127,kW=0.34418,pf=0.92,Vminpu=0.92,Vmaxpu=1.5,model=1,daily=RES1_17,status=variable
new load.3000946903M1 bus1=RML203050480.3.0,Phases=1,kv=0.127,kW=0.73586,pf=0.92,Vminpu=0.92,Vmaxpu=1.5,model=1,daily=RES1_1,status=variable
new load.3000946886M1 bus1=RML203050403.3.0,Phases=1,kv=0.127,kW=0.08914,pf=0.92,Vminpu=0.92,Vmaxpu=1.5,model=1,daily=RES1_10,status=variable
new load.3000946888M1 bus1=RML203050438.1.0,Phases=1,kv=0.127,kW=0.56402,pf=0.92,Vminpu=0.92,Vmaxpu=1.5,model=1,daily=RES1_7,status=variable
new load.3000946889M1 bus1=RML203050417.1.0,Phases=1,kv=0.127,kW=1.96542,pf=0.92,Vminpu=0.92,Vmaxpu=1.5,model=1,daily=RES1_5,status=variable
new load.3000946890M1 bus1=RML203050361.1.0,Phases=1,kv=0.127,kW=0.17072,pf=0.92,Vminpu=0.92,Vmaxpu=1.5,model=1,daily=RES1_11,status=variable
new load.3000946892M1 bus1=RML203050305.1.0,Phases=1,kv=0.127,kW=0.96058,pf=0.92,Vminpu=0.92,Vmaxpu=1.5,model=1,daily=RES1_14,status=variable
new load.3000946893M1 bus1=RML203050312.3.0,Phases=1,kv=0.127,kW=0.76314,pf=0.92,Vminpu=0.92,Vmaxpu=1.5,model=1,daily=RES1_4,status=variable
new load.3000946894M1 bus1=RML203050522.2.0,Phases=1,kv=0.127,kW=1.14886,pf=0.92,Vminpu=0.92,Vmaxpu=1.5,model=1,daily=RES1_2,status=variable
new load.3000946895M1 bus1=RML203050263.2.0,Phases=1,kv=0.127,kW=0.54044,pf=0.92,Vminpu=0.92,Vmaxpu=1.5,model=1,daily=RES1_10,status=variable
new load.3000946896M1 bus1=RML203050326.2.0,Phases=1,kv=0.127,kW=0.41984,pf=0.92,Vminpu=0.92,Vmaxpu=1.5,model=1,daily=RES1_16,status=variable
new load.3000946897M1 bus1=RML203050501.3.0,Phases=1,kv=0.127,kW=0.03484,pf=0.92,Vminpu=0.92,Vmaxpu=1.5,model=1,daily=COM1_23,status=variable
new load.3000946898M1 bus1=RML203050473.2.0,Phases=1,kv=0.127,kW=0.84406,pf=0.92,Vminpu=0.92,Vmaxpu=1.5,model=1,daily=RES1_13,status=variable
new load.3000946899M1 bus1=RML203050466.3.0,Phases=1,kv=0.127,kW=0.37314,pf=0.92,Vminpu=0.92,Vmaxpu=1.5,model=1,daily=RES1_2,status=variable
new load.3000946947M1 bus1=RML203050242.3.0,Phases=1,kv=0.127,kW=0.64124,pf=0.92,Vminpu=0.92,Vmaxpu=1.5,model=1,daily=RES1_1,status=variable
new load.3000946948M1 bus1=RML203050256.3.0,Phases=1,kv=0.127,kW=0.21172,pf=0.92,Vminpu=0.92,Vmaxpu=1.5,model=1,daily=RES1_10,status=variable
new load.3000946949M1 bus1=RML203050284.1.0,Phases=1,kv=0.127,kW=0.84248,pf=0.92,Vminpu=0.92,Vmaxpu=1.5,model=1,daily=RES1_9,status=variable
new load.3000946950M1 bus1=RML203050277.2.0,Phases=1,kv=0.127,kW=0.72662,pf=0.92,Vminpu=0.92,Vmaxpu=1.5,model=1,daily=RES1_2,status=variable
new load.3000946952M1 bus1=RML203050270.1.0,Phases=1,kv=0.127,kW=1.09976,pf=0.92,Vminpu=0.92,Vmaxpu=1.5,model=1,daily=RES1_2,status=variable
new load.3000946869M1 bus1=RML203051397.3.0,Phases=1,kv=0.127,kW=0.01964,pf=0.92,Vminpu=0.92,Vmaxpu=1.5,model=1,daily=RES1_2,status=variable
new load.3000946870M1 bus1=RML203051390.3.0,Phases=1,kv=0.127,kW=0.05698,pf=0.92,Vminpu=0.92,Vmaxpu=1.5,model=1,daily=RES1_18,status=variable
new load.3000946871M1 bus1=RML203051005.2.0,Phases=1,kv=0.127,kW=1.04428,pf=0.92,Vminpu=0.92,Vmaxpu=1.5,model=1,daily=RES1_6,status=variable
new load.3000946875M1 bus1=RML203050977.1.3.0,Phases=2,kv=0.22,kW=1.09976,pf=0.92,Vminpu=0.92,Vmaxpu=1.5,model=1,daily=RES1_2,status=variable
new load.3000946877M1 bus1=RML203050844.1.0,Phases=1,kv=0.127,kW=0.14392,pf=0.92,Vminpu=0.92,Vmaxpu=1.5,model=1,daily=RES1_18,status=variable
new load.3000946761M1 bus1=RML203050956.2.0,Phases=1,kv=0.127,kW=0.6767,pf=0.92,Vminpu=0.92,Vmaxpu=1.5,model=1,daily=RES2_22,status=variable
new load.3000946762M1 bus1=RML203050963.1.0,Phases=1,kv=0.127,kW=0.269,pf=0.92,Vminpu=0.92,Vmaxpu=1.5,model=1,daily=RES1_7,status=variable
new load.3000946763M1 bus1=RML203051026.3.0,Phases=1,kv=0.127,kW=1.01026,pf=0.92,Vminpu=0.92,Vmaxpu=1.5,model=1,daily=RES1_5,status=variable
new load.3000946765M1 bus1=RML203051019.1.0,Phases=1,kv=0.127,kW=0.82828,pf=0.92,Vminpu=0.92,Vmaxpu=1.5,model=1,daily=RES2_3,status=variable
new load.3000946766M1 bus1=RML203051012.1.0,Phases=1,kv=0.127,kW=0.94956,pf=0.92,Vminpu=0.92,Vmaxpu=1.5,model=1,daily=RES1_13,status=variable
new load.3000946767M1 bus1=RML203051061.1.0,Phases=1,kv=0.127,kW=0.34368,pf=0.92,Vminpu=0.92,Vmaxpu=1.5,model=1,daily=RES1_2,status=variable
new load.3000946343M1 bus1=RML203050900.1.2.3.0,Phases=3,kv=0.22,kW=0.60104,pf=0.92,Vminpu=0.92,Vmaxpu=1.5,model=1,daily=RES1_17,status=variable
new load.3000946346M1 bus1=RML203050914.2.3.0,Phases=2,kv=0.22,kW=0.27494,pf=0.92,Vminpu=0.92,Vmaxpu=1.5,model=1,daily=RES1_2,status=variable
new load.3000946347M1 bus1=RML210613059.2.0,Phases=1,kv=0.127,kW=0.34544,pf=0.92,Vminpu=0.92,Vmaxpu=1.5,model=1,daily=RES1_10,status=variable
new load.3000946349M1 bus1=RML203050928.1.0,Phases=1,kv=0.127,kW=0.46856,pf=0.92,Vminpu=0.92,Vmaxpu=1.5,model=1,daily=RES2_24,status=variable
new load.3000946350M1 bus1=RML203050935.3.0,Phases=1,kv=0.127,kW=0.20924,pf=0.92,Vminpu=0.92,Vmaxpu=1.5,model=1,daily=RES1_19,status=variable
new load.3000946352M1 bus1=RML203050991.2.0,Phases=1,kv=0.127,kW=1.09742,pf=0.92,Vminpu=0.92,Vmaxpu=1.5,model=1,daily=RES2_5,status=variable
new load.3000946353M1 bus1=RML203050998.3.0,Phases=1,kv=0.127,kW=0.93354,pf=0.92,Vminpu=0.92,Vmaxpu=1.5,model=1,daily=RES1_8,status=variable
new load.3000946354M1 bus1=RML203051096.1.3.0,Phases=2,kv=0.22,kW=1.08126,pf=0.92,Vminpu=0.92,Vmaxpu=1.5,model=1,daily=RES2_20,status=variable
new load.3000946355M1 bus1=RML203051103.1.0,Phases=1,kv=0.127,kW=0.48124,pf=0.92,Vminpu=0.92,Vmaxpu=1.5,model=1,daily=RES2_24,status=variable
new load.3000946356M1 bus1=RML203051117.1.2.3.0,Phases=3,kv=0.22,kW=0.44646,pf=0.92,Vminpu=0.92,Vmaxpu=1.5,model=1,daily=RES2_27,status=variable
new load.3000946357M1 bus1=RML203051110.1.0,Phases=1,kv=0.127,kW=0.19878,pf=0.92,Vminpu=0.92,Vmaxpu=1.5,model=1,daily=COM1_7,status=variable
new load.3000946358M1 bus1=RML203051089.1.2.3.0,Phases=3,kv=0.22,kW=4.26666,pf=0.92,Vminpu=0.92,Vmaxpu=1.5,model=1,daily=COM2_17,status=variable
new load.3000946360M1 bus1=RML203050830.1.2.3.0,Phases=3,kv=0.22,kW=1.22088,pf=0.92,Vminpu=0.92,Vmaxpu=1.5,model=1,daily=COM1_21,status=variable
new load.3000946286M1 bus1=RML203052286.1.2.0,Phases=2,kv=0.22,kW=1.66092,pf=0.92,Vminpu=0.92,Vmaxpu=1.5,model=1,daily=RES1_1,status=variable
new load.3000946880M1 bus1=RML203051222.2.0,Phases=1,kv=0.127,kW=0.7674,pf=0.92,Vminpu=0.92,Vmaxpu=1.5,model=1,daily=RES1_1,status=variable
new load.3000946881M1 bus1=RML203051131.1.2.3.0,Phases=3,kv=0.22,kW=2.10946,pf=0.92,Vminpu=0.92,Vmaxpu=1.5,model=1,daily=COM2_16,status=variable
new load.3000946953M1 bus1=RML203051166.1.0,Phases=1,kv=0.127,kW=0.23566,pf=0.92,Vminpu=0.92,Vmaxpu=1.5,model=1,daily=RES1_2,status=variable
new load.3000946955M1 bus1=RML203155508.3.0,Phases=1,kv=0.127,kW=0.54398,pf=0.92,Vminpu=0.92,Vmaxpu=1.5,model=1,daily=RES2_17,status=variable
new load.3000946956M1 bus1=RML203051138.3.0,Phases=1,kv=0.127,kW=0.626,pf=0.92,Vminpu=0.92,Vmaxpu=1.5,model=1,daily=RES1_14,status=variable
new load.3000946957M1 bus1=RML203051187.2.0,Phases=1,kv=0.127,kW=0.67996,pf=0.92,Vminpu=0.92,Vmaxpu=1.5,model=1,daily=RES1_14,status=variable
new load.3000946958M1 bus1=RML203051194.1.0,Phases=1,kv=0.127,kW=0.9508,pf=0.92,Vminpu=0.92,Vmaxpu=1.5,model=1,daily=RES2_6,status=variable
new load.3000946959M1 bus1=RML203155508.3.0,Phases=1,kv=0.127,kW=0.1571,pf=0.92,Vminpu=0.92,Vmaxpu=1.5,model=1,daily=RES1_2,status=variable
new load.3000946960M1 bus1=RML203051208.2.0,Phases=1,kv=0.127,kW=0.351,pf=0.92,Vminpu=0.92,Vmaxpu=1.5,model=1,daily=RES1_10,status=variable
new load.3000946827M1 bus1=RML203051523.2.0,Phases=1,kv=0.127,kW=0.14384,pf=0.92,Vminpu=0.92,Vmaxpu=1.5,model=1,daily=RES1_17,status=variable
new load.3000946866M1 bus1=RML203051425.2.0,Phases=1,kv=0.127,kW=0.61648,pf=0.92,Vminpu=0.92,Vmaxpu=1.5,model=1,daily=RES1_12,status=variable
new load.3000946867M1 bus1=RML203051404.3.0,Phases=1,kv=0.127,kW=0.64272,pf=0.92,Vminpu=0.92,Vmaxpu=1.5,model=1,daily=RES1_11,status=variable
new load.3000946844M1 bus1=RML203051271.3.0,Phases=1,kv=0.127,kW=1.08214,pf=0.92,Vminpu=0.92,Vmaxpu=1.5,model=1,daily=RES2_6,status=variable
new load.3000946845M1 bus1=RML203051278.2.0,Phases=1,kv=0.127,kW=0.63074,pf=0.92,Vminpu=0.92,Vmaxpu=1.5,model=1,daily=RES1_1,status=variable
new load.3000946846M1 bus1=RML203051285.2.0,Phases=1,kv=0.127,kW=2.97154,pf=0.92,Vminpu=0.92,Vmaxpu=1.5,model=1,daily=RES1_8,status=variable
new load.3000946847M1 bus1=RML203051292.2.0,Phases=1,kv=0.127,kW=1.23722,pf=0.92,Vminpu=0.92,Vmaxpu=1.5,model=1,daily=RES1_2,status=variable
new load.3000946848M1 bus1=RML203051509.1.0,Phases=1,kv=0.127,kW=0.97352,pf=0.92,Vminpu=0.92,Vmaxpu=1.5,model=1,daily=RES1_5,status=variable
new load.3000946849M1 bus1=RML203051502.1.0,Phases=1,kv=0.127,kW=0.34538,pf=0.92,Vminpu=0.92,Vmaxpu=1.5,model=1,daily=RES1_14,status=variable
new load.3000946850M1 bus1=RML203051460.1.2.0,Phases=2,kv=0.22,kW=2.29606,pf=0.92,Vminpu=0.92,Vmaxpu=1.5,model=1,daily=RES1_5,status=variable
new load.3000946851M1 bus1=RML203051369.2.0,Phases=1,kv=0.127,kW=0.23126,pf=0.92,Vminpu=0.92,Vmaxpu=1.5,model=1,daily=RES1_1,status=variable
new load.3000946853M1 bus1=RML203051411.3.0,Phases=1,kv=0.127,kW=0.8544,pf=0.92,Vminpu=0.92,Vmaxpu=1.5,model=1,daily=RES1_6,status=variable
new load.3000946824M1 bus1=RML203051488.2.0,Phases=1,kv=0.127,kW=0.34782,pf=0.92,Vminpu=0.92,Vmaxpu=1.5,model=1,daily=RES1_18,status=variable
new load.3000946768M1 bus1=RML203051068.1.2.3.0,Phases=3,kv=0.22,kW=0.30092,pf=0.92,Vminpu=0.92,Vmaxpu=1.5,model=1,daily=COM1_25,status=variable
new load.3000946769M1 bus1=RML203051313.3.0,Phases=1,kv=0.127,kW=0.17092,pf=0.92,Vminpu=0.92,Vmaxpu=1.5,model=1,daily=RES1_18,status=variable
new load.3000946770M1 bus1=RML203051320.1.0,Phases=1,kv=0.127,kW=0.85666,pf=0.92,Vminpu=0.92,Vmaxpu=1.5,model=1,daily=RES2_5,status=variable
new load.3000946771M1 bus1=RML203051327.2.0,Phases=1,kv=0.127,kW=0.4906,pf=0.92,Vminpu=0.92,Vmaxpu=1.5,model=1,daily=RES1_4,status=variable
new load.3000946772M1 bus1=RML203051257.2.3.0,Phases=2,kv=0.22,kW=0.69716,pf=0.92,Vminpu=0.92,Vmaxpu=1.5,model=1,daily=RES1_2,status=variable
new load.3000946773M1 bus1=RML203051383.3.0,Phases=1,kv=0.127,kW=0.17674,pf=0.92,Vminpu=0.92,Vmaxpu=1.5,model=1,daily=RES1_2,status=variable
new load.3000946774M1 bus1=RML203051362.2.0,Phases=1,kv=0.127,kW=0.62264,pf=0.92,Vminpu=0.92,Vmaxpu=1.5,model=1,daily=RES1_11,status=variable
new load.3000946775M1 bus1=RML203051355.2.0,Phases=1,kv=0.127,kW=0.37974,pf=0.92,Vminpu=0.92,Vmaxpu=1.5,model=1,daily=RES1_6,status=variable
new load.3000946776M1 bus1=RML203051341.1.0,Phases=1,kv=0.127,kW=0.93202,pf=0.92,Vminpu=0.92,Vmaxpu=1.5,model=1,daily=RES2_6,status=variable
new load.3000946777M1 bus1=RML203051474.2.0,Phases=1,kv=0.127,kW=0.3245,pf=0.92,Vminpu=0.92,Vmaxpu=1.5,model=1,daily=RES2_26,status=variable
new load.3000946778M1 bus1=RML203051481.1.3.0,Phases=2,kv=0.22,kW=0.01964,pf=0.92,Vminpu=0.92,Vmaxpu=1.5,model=1,daily=RES1_2,status=variable
new load.3003273777M1 bus1=RML203051565.1.2.0,Phases=2,kv=0.22,kW=2.58538,pf=0.92,Vminpu=0.92,Vmaxpu=1.5,model=1,daily=COM2_16,status=variable
new load.3003273785M1 bus1=RML203051873.1.2.0,Phases=2,kv=0.22,kW=8.51332,pf=0.92,Vminpu=0.92,Vmaxpu=1.5,model=1,daily=RES1_2,status=variable
new load.3003273740M1 bus1=RML210936713.1.2.0,Phases=2,kv=0.22,kW=0.00582,pf=0.92,Vminpu=0.92,Vmaxpu=1.5,model=1,daily=COM1_4,status=variable
new load.3000946367M1 bus1=RML203051985.1.2.0,Phases=2,kv=0.22,kW=0.08372,pf=0.92,Vminpu=0.92,Vmaxpu=1.5,model=1,daily=RES1_24,status=variable
new load.3000946362M1 bus1=RML203052041.3.0,Phases=1,kv=0.127,kW=0.59898,pf=0.92,Vminpu=0.92,Vmaxpu=1.5,model=1,daily=RES1_2,status=variable
new load.3000946363M1 bus1=RML203052006.1.0,Phases=1,kv=0.127,kW=0.22188,pf=0.92,Vminpu=0.92,Vmaxpu=1.5,model=1,daily=RES1_22,status=variable
new load.3000946383M1 bus1=RML203052216.1.0,Phases=1,kv=0.127,kW=0.27586,pf=0.92,Vminpu=0.92,Vmaxpu=1.5,model=1,daily=RES1_18,status=variable
new load.3000946384M1 bus1=RML203052251.2.0,Phases=1,kv=0.127,kW=0.65078,pf=0.92,Vminpu=0.92,Vmaxpu=1.5,model=1,daily=RES1_7,status=variable
new load.3000946385M1 bus1=RML203052230.1.0,Phases=1,kv=0.127,kW=0.44998,pf=0.92,Vminpu=0.92,Vmaxpu=1.5,model=1,daily=RES1_23,status=variable
new load.3000946386M1 bus1=RML203052104.1.2.3.0,Phases=3,kv=0.22,kW=1.3905,pf=0.92,Vminpu=0.92,Vmaxpu=1.5,model=1,daily=COM1_20,status=variable
new load.3000946388M1 bus1=RML203052272.1.2.3.0,Phases=3,kv=0.22,kW=0.42538,pf=0.92,Vminpu=0.92,Vmaxpu=1.5,model=1,daily=RES1_3,status=variable
new load.3000946249M1 bus1=RML203052398.1.2.3.0,Phases=3,kv=0.22,kW=0.37154,pf=0.92,Vminpu=0.92,Vmaxpu=1.5,model=1,daily=COM1_23,status=variable
new load.3000946250M1 bus1=RML203052419.1.2.3.0,Phases=3,kv=0.22,kW=0.84094,pf=0.92,Vminpu=0.92,Vmaxpu=1.5,model=1,daily=RES2_22,status=variable
new load.3000946251M1 bus1=RML203052356.2.0,Phases=1,kv=0.127,kW=1.00328,pf=0.92,Vminpu=0.92,Vmaxpu=1.5,model=1,daily=RES1_25,status=variable