! manter este comentario para compatibilidade do C#
new circuit.alimCETU04 bus1=BMTFIC.1.2.3,basekv=13.800000000,pu=1.040000000

