new load.3000195175M1 bus1=RML1052193304.1.0,Phases=1,kv=0.127,kW=1.78804,pf=0.92,Vminpu=0.92,Vmaxpu=1.5,model=1,daily=RES2_3,status=variable
new load.3000195176M1 bus1=RML1052193311.2.0,Phases=1,kv=0.127,kW=1.96878,pf=0.92,Vminpu=0.92,Vmaxpu=1.5,model=1,daily=RES3_4,status=variable
new load.3000195177M1 bus1=RML1052193297.1.2.0,Phases=2,kv=0.22,kW=0.76428,pf=0.92,Vminpu=0.92,Vmaxpu=1.5,model=1,daily=RES3_4,status=variable
new load.3000195178M1 bus1=RML1052193276.1.0,Phases=1,kv=0.127,kW=0.62844,pf=0.92,Vminpu=0.92,Vmaxpu=1.5,model=1,daily=RES1_2,status=variable
new load.3000195179M1 bus1=RML1052193269.3.0,Phases=1,kv=0.127,kW=0.68734,pf=0.92,Vminpu=0.92,Vmaxpu=1.5,model=1,daily=RES1_2,status=variable
new load.3013506682M1 bus1=RML1060787233.2.0,Phases=1,kv=0.127,kW=0.49674,pf=0.92,Vminpu=0.92,Vmaxpu=1.5,model=1,daily=RES2_16,status=variable
new load.IP6904283M1 bus1=BBT5032924.1.2.0,Phases=2,kv=0.22,kW=0.1129,pf=0.92,Vminpu=0.92,Vmaxpu=1.5,model=1,daily=IP,status=variable
new load.IP6904290M1 bus1=BBT5032917.1.2.0,Phases=2,kv=0.22,kW=0.1129,pf=0.92,Vminpu=0.92,Vmaxpu=1.5,model=1,daily=IP,status=variable
new load.IP6904297M1 bus1=BBT5032910.1.2.0,Phases=2,kv=0.22,kW=0.1129,pf=0.92,Vminpu=0.92,Vmaxpu=1.5,model=1,daily=IP,status=variable
new load.IP7787963M1 bus1=BBT1176988.2.3.0,Phases=2,kv=0.22,kW=0.1317,pf=0.92,Vminpu=0.92,Vmaxpu=1.5,model=1,daily=IP,status=variable
new load.3007342575M1 bus1=RML1057297739.3.0,Phases=1,kv=0.127,kW=0.57204,pf=0.92,Vminpu=0.92,Vmaxpu=1.5,model=1,daily=RES1_14,status=variable
new load.3014027389M1 bus1=RML1052193241.2.0,Phases=1,kv=0.127,kW=0.30554,pf=0.92,Vminpu=0.92,Vmaxpu=1.5,model=1,daily=RES2_28,status=variable
new load.IP5643408M1 bus1=BBT1177051.2.3.0,Phases=2,kv=0.22,kW=0.1317,pf=0.92,Vminpu=0.92,Vmaxpu=1.5,model=1,daily=IP,status=variable
new load.IP5643422M1 bus1=BBT1177058.1.3.0,Phases=2,kv=0.22,kW=0.1317,pf=0.92,Vminpu=0.92,Vmaxpu=1.5,model=1,daily=IP,status=variable
new load.IP5643436M1 bus1=BBT1177065.1.3.0,Phases=2,kv=0.22,kW=0.1317,pf=0.92,Vminpu=0.92,Vmaxpu=1.5,model=1,daily=IP,status=variable
new load.IP5643443M1 bus1=BBT1177072.1.2.0,Phases=2,kv=0.22,kW=0.1317,pf=0.92,Vminpu=0.92,Vmaxpu=1.5,model=1,daily=IP,status=variable
new load.IP5643457M1 bus1=BBT1177079.2.3.0,Phases=2,kv=0.22,kW=0.1317,pf=0.92,Vminpu=0.92,Vmaxpu=1.5,model=1,daily=IP,status=variable
new load.IP5643464M1 bus1=BBT1177086.1.2.0,Phases=2,kv=0.22,kW=0.1317,pf=0.92,Vminpu=0.92,Vmaxpu=1.5,model=1,daily=IP,status=variable
new load.IP5642519M1 bus1=BBT1177009.2.3.0,Phases=2,kv=0.22,kW=0.1317,pf=0.92,Vminpu=0.92,Vmaxpu=1.5,model=1,daily=IP,status=variable
new load.IP5642540M1 bus1=BBT1177016.1.2.0,Phases=2,kv=0.22,kW=0.1317,pf=0.92,Vminpu=0.92,Vmaxpu=1.5,model=1,daily=IP,status=variable
new load.IP5642554M1 bus1=BBT1177023.1.3.0,Phases=2,kv=0.22,kW=0.1317,pf=0.92,Vminpu=0.92,Vmaxpu=1.5,model=1,daily=IP,status=variable
new load.IP5642568M1 bus1=BBT1177030.1.2.0,Phases=2,kv=0.22,kW=0.1317,pf=0.92,Vminpu=0.92,Vmaxpu=1.5,model=1,daily=IP,status=variable
new load.3000724538M1 bus1=RML1052194508.2.0,Phases=1,kv=0.12,kW=1.48552,pf=0.92,Vminpu=0.92,Vmaxpu=1.5,model=1,daily=RES2_14,status=variable
new load.3000724539M1 bus1=RML1052194501.2.0,Phases=1,kv=0.12,kW=0.86888,pf=0.92,Vminpu=0.92,Vmaxpu=1.5,model=1,daily=RES2_14,status=variable
new load.3000724540M1 bus1=RML1052194487.1.0,Phases=1,kv=0.12,kW=0.82028,pf=0.92,Vminpu=0.92,Vmaxpu=1.5,model=1,daily=RES1_14,status=variable
new load.3000724542M1 bus1=RML1052194459.1.0,Phases=1,kv=0.12,kW=1.01838,pf=0.92,Vminpu=0.92,Vmaxpu=1.5,model=1,daily=RES2_14,status=variable
new load.3000724543M1 bus1=RML1052194445.1.0,Phases=1,kv=0.12,kW=1.00902,pf=0.92,Vminpu=0.92,Vmaxpu=1.5,model=1,daily=RES2_14,status=variable
new load.IP5720422M1 bus1=BBT1177870.1.2.0,Phases=2,kv=0.24,kW=0.1317,pf=0.92,Vminpu=0.92,Vmaxpu=1.5,model=1,daily=IP,status=variable
new load.IP8234987M1 bus1=BBT1177835.1.2.0,Phases=2,kv=0.24,kW=0.1129,pf=0.92,Vminpu=0.92,Vmaxpu=1.5,model=1,daily=IP,status=variable
new load.IP5719358M1 bus1=BBT1177821.1.2.0,Phases=2,kv=0.24,kW=0.1317,pf=0.92,Vminpu=0.92,Vmaxpu=1.5,model=1,daily=IP,status=variable
new load.IP5719365M1 bus1=BBT1177828.1.2.0,Phases=2,kv=0.24,kW=0.1317,pf=0.92,Vminpu=0.92,Vmaxpu=1.5,model=1,daily=IP,status=variable
new load.IP5720387M1 bus1=BBT1177842.1.2.0,Phases=2,kv=0.24,kW=0.1317,pf=0.92,Vminpu=0.92,Vmaxpu=1.5,model=1,daily=IP,status=variable
new load.IP5720394M1 bus1=BBT1177849.1.2.0,Phases=2,kv=0.24,kW=0.1317,pf=0.92,Vminpu=0.92,Vmaxpu=1.5,model=1,daily=IP,status=variable
new load.IP5720401M1 bus1=BBT1177863.1.2.0,Phases=2,kv=0.24,kW=0.1317,pf=0.92,Vminpu=0.92,Vmaxpu=1.5,model=1,daily=IP,status=variable
new load.IP5720408M1 bus1=BBT1177856.1.2.0,Phases=2,kv=0.24,kW=0.1317,pf=0.92,Vminpu=0.92,Vmaxpu=1.5,model=1,daily=IP,status=variable
new load.3000724581M1 bus1=RML1052194389.2.0,Phases=1,kv=0.12,kW=0.59362,pf=0.92,Vminpu=0.92,Vmaxpu=1.5,model=1,daily=RES1_14,status=variable
new load.3005230409M1 bus1=RML1052194592.2.0,Phases=1,kv=0.12,kW=0.22788,pf=0.92,Vminpu=0.92,Vmaxpu=1.5,model=1,daily=RES1_18,status=variable
new load.3005437166M1 bus1=RML1052194522.2.0,Phases=1,kv=0.12,kW=0.30826,pf=0.92,Vminpu=0.92,Vmaxpu=1.5,model=1,daily=RES2_28,status=variable
new load.3006833561M1 bus1=RML1052194648.1.0,Phases=1,kv=0.12,kW=0.91326,pf=0.92,Vminpu=0.92,Vmaxpu=1.5,model=1,daily=RES2_6,status=variable
new load.3012316585M1 bus1=RML1052194515.2.0,Phases=1,kv=0.12,kW=0.4646,pf=0.92,Vminpu=0.92,Vmaxpu=1.5,model=1,daily=RES2_20,status=variable
new load.3000724575M1 bus1=RML1052194431.1.0,Phases=1,kv=0.12,kW=1.09312,pf=0.92,Vminpu=0.92,Vmaxpu=1.5,model=1,daily=RES2_14,status=variable
new load.3000724577M1 bus1=RML1052194417.2.0,Phases=1,kv=0.12,kW=1.47618,pf=0.92,Vminpu=0.92,Vmaxpu=1.5,model=1,daily=RES2_14,status=variable
new load.3000724578M1 bus1=RML1052194410.1.0,Phases=1,kv=0.12,kW=0.57204,pf=0.92,Vminpu=0.92,Vmaxpu=1.5,model=1,daily=RES1_14,status=variable
new load.3000724580M1 bus1=RML1052194396.2.0,Phases=1,kv=0.12,kW=0.95298,pf=0.92,Vminpu=0.92,Vmaxpu=1.5,model=1,daily=RES2_14,status=variable
new load.3000724570M1 bus1=RML1052194466.2.0,Phases=1,kv=0.12,kW=1.13048,pf=0.92,Vminpu=0.92,Vmaxpu=1.5,model=1,daily=RES2_14,status=variable
new load.3000724571M1 bus1=RML1052194480.1.0,Phases=1,kv=0.12,kW=0.8502,pf=0.92,Vminpu=0.92,Vmaxpu=1.5,model=1,daily=RES2_14,status=variable
new load.3010956466M1 bus1=RML1058632765.2.0,Phases=1,kv=0.12,kW=0.17286,pf=0.92,Vminpu=0.92,Vmaxpu=1.5,model=1,daily=RUR2_18,status=variable
new load.3000195132M1 bus1=RML1052193948.1.2.0,Phases=2,kv=0.22,kW=0.2235,pf=0.92,Vminpu=0.92,Vmaxpu=1.5,model=1,daily=RES2_3,status=variable
new load.3000195133M1 bus1=RML1052193962.3.0,Phases=1,kv=0.127,kW=0.85458,pf=0.92,Vminpu=0.92,Vmaxpu=1.5,model=1,daily=RES2_3,status=variable
new load.3000195134M1 bus1=RML1052193955.1.2.0,Phases=2,kv=0.22,kW=1.31474,pf=0.92,Vminpu=0.92,Vmaxpu=1.5,model=1,daily=RES2_3,status=variable
new load.3000195135M1 bus1=RML1052193976.1.2.3.0,Phases=3,kv=0.22,kW=1.37796,pf=0.92,Vminpu=0.92,Vmaxpu=1.5,model=1,daily=RES4_5,status=variable
new load.3003397600M1 bus1=RML1052193941.1.2.3.0,Phases=3,kv=0.22,kW=4.67746,pf=0.92,Vminpu=0.92,Vmaxpu=1.5,model=1,daily=COM3_2,status=variable
new load.3006128042M1 bus1=RML1056349757.2.3.0,Phases=2,kv=0.22,kW=0.92536,pf=0.92,Vminpu=0.92,Vmaxpu=1.5,model=1,daily=RES3_13,status=variable
new load.IP5632012M1 bus1=BBT1177436.1.2.0,Phases=2,kv=0.22,kW=0.1317,pf=0.92,Vminpu=0.92,Vmaxpu=1.5,model=1,daily=IP,status=variable
new load.IP5632040M1 bus1=BBT1177429.1.2.0,Phases=2,kv=0.22,kW=0.1317,pf=0.92,Vminpu=0.92,Vmaxpu=1.5,model=1,daily=IP,status=variable
new load.3006146489M1 bus1=RML1056365213.1.3.0,Phases=2,kv=0.22,kW=1.21142,pf=0.92,Vminpu=0.92,Vmaxpu=1.5,model=1,daily=RES3_14,status=variable
new load.3004997244M1 bus1=RML1052193969.1.2.3.0,Phases=3,kv=0.22,kW=1.75684,pf=0.92,Vminpu=0.92,Vmaxpu=1.5,model=1,daily=RES2_11,status=variable
new load.3004731543M1 bus1=RML1052193934.1.2.0,Phases=2,kv=0.22,kW=2.47234,pf=0.92,Vminpu=0.92,Vmaxpu=1.5,model=1,daily=RES3_6,status=variable
new load.3010804539M1 bus1=RML1058329805.1.3.0,Phases=2,kv=0.22,kW=0.44614,pf=0.92,Vminpu=0.92,Vmaxpu=1.5,model=1,daily=RES2_16,status=variable
new load.IP5631879M1 bus1=BBT1177450.2.3.0,Phases=2,kv=0.22,kW=0.1317,pf=0.92,Vminpu=0.92,Vmaxpu=1.5,model=1,daily=IP,status=variable
new load.IP5631893M1 bus1=BBT1177443.2.3.0,Phases=2,kv=0.22,kW=0.1317,pf=0.92,Vminpu=0.92,Vmaxpu=1.5,model=1,daily=IP,status=variable
new load.3011008395M1 bus1=RML1060232746.2.0,Phases=1,kv=0.12,kW=0.02698,pf=0.92,Vminpu=0.92,Vmaxpu=1.5,model=1,daily=RES1_18,status=variable
new load.3003074001M1 bus1=RML1051731920.1.0,Phases=1,kv=0.127,kW=1.03326,pf=0.92,Vminpu=0.92,Vmaxpu=1.5,model=1,daily=RES2_21,status=variable
new load.3003074002M1 bus1=RML1051731948.2.0,Phases=1,kv=0.127,kW=0.14692,pf=0.92,Vminpu=0.92,Vmaxpu=1.5,model=1,daily=RES1_18,status=variable
new load.3003074017M1 bus1=RML1051731955.1.0,Phases=1,kv=0.127,kW=0.17392,pf=0.92,Vminpu=0.92,Vmaxpu=1.5,model=1,daily=RES1_18,status=variable
new load.3003074018M1 bus1=RML1051731962.3.0,Phases=1,kv=0.127,kW=0.7882,pf=0.92,Vminpu=0.92,Vmaxpu=1.5,model=1,daily=RES2_21,status=variable
new load.3003074020M1 bus1=RML1051731976.3.0,Phases=1,kv=0.127,kW=0.69546,pf=0.92,Vminpu=0.92,Vmaxpu=1.5,model=1,daily=RES2_21,status=variable
new load.IP7892536M1 bus1=BBT127026174.1.2.0,Phases=2,kv=0.22,kW=0.1129,pf=0.92,Vminpu=0.92,Vmaxpu=1.5,model=1,daily=IP,status=variable
new load.IP5719659M1 bus1=BBT92374487.1.2.0,Phases=2,kv=0.22,kW=0.1317,pf=0.92,Vminpu=0.92,Vmaxpu=1.5,model=1,daily=IP,status=variable
new load.IP5719834M1 bus1=BBT856178.1.3.0,Phases=2,kv=0.22,kW=0.1317,pf=0.92,Vminpu=0.92,Vmaxpu=1.5,model=1,daily=IP,status=variable
new load.IP5719841M1 bus1=BBT856206.1.2.0,Phases=2,kv=0.22,kW=0.1317,pf=0.92,Vminpu=0.92,Vmaxpu=1.5,model=1,daily=IP,status=variable
new load.IP5719848M1 bus1=BBT856206.1.2.0,Phases=2,kv=0.22,kW=0.1317,pf=0.92,Vminpu=0.92,Vmaxpu=1.5,model=1,daily=IP,status=variable
new load.3000724572M1 bus1=RML1052194494.1.0,Phases=1,kv=0.12,kW=0.88758,pf=0.92,Vminpu=0.92,Vmaxpu=1.5,model=1,daily=RES2_14,status=variable
new load.3000724573M1 bus1=RML1052194515.2.0,Phases=1,kv=0.12,kW=0.9154,pf=0.92,Vminpu=0.92,Vmaxpu=1.5,model=1,daily=RES3_13,status=variable
new load.3000724574M1 bus1=RML1052194438.1.0,Phases=1,kv=0.12,kW=1.25194,pf=0.92,Vminpu=0.92,Vmaxpu=1.5,model=1,daily=RES2_14,status=variable
new load.3000724563M1 bus1=RML1052194557.1.0,Phases=1,kv=0.12,kW=0.69076,pf=0.92,Vminpu=0.92,Vmaxpu=1.5,model=1,daily=RES1_14,status=variable
new load.3000724564M1 bus1=RML1052194571.1.0,Phases=1,kv=0.12,kW=1.45748,pf=0.92,Vminpu=0.92,Vmaxpu=1.5,model=1,daily=RES2_14,status=variable
new load.3000724567M1 bus1=RML1052194613.2.0,Phases=1,kv=0.12,kW=1.02772,pf=0.92,Vminpu=0.92,Vmaxpu=1.5,model=1,daily=RES2_14,status=variable
new load.3000724556M1 bus1=RML1052194690.1.0,Phases=1,kv=0.12,kW=0.06476,pf=0.92,Vminpu=0.92,Vmaxpu=1.5,model=1,daily=RES1_14,status=variable
new load.3000724557M1 bus1=RML1052194648.1.0,Phases=1,kv=0.12,kW=1.26128,pf=0.92,Vminpu=0.92,Vmaxpu=1.5,model=1,daily=RES2_14,status=variable
new load.3000724558M1 bus1=RML1052194662.1.0,Phases=1,kv=0.12,kW=1.21458,pf=0.92,Vminpu=0.92,Vmaxpu=1.5,model=1,daily=RES2_14,status=variable
new load.3000724559M1 bus1=RML1052194676.1.0,Phases=1,kv=0.12,kW=1.03706,pf=0.92,Vminpu=0.92,Vmaxpu=1.5,model=1,daily=RES2_14,status=variable
new load.3000724560M1 bus1=RML1052194683.1.0,Phases=1,kv=0.12,kW=1.21458,pf=0.92,Vminpu=0.92,Vmaxpu=1.5,model=1,daily=RES2_14,status=variable
new load.3000724550M1 bus1=RML1052194522.2.0,Phases=1,kv=0.12,kW=1.38274,pf=0.92,Vminpu=0.92,Vmaxpu=1.5,model=1,daily=RES2_14,status=variable
new load.3000724551M1 bus1=RML1052194669.2.0,Phases=1,kv=0.12,kW=1.17908,pf=0.92,Vminpu=0.92,Vmaxpu=1.5,model=1,daily=RES3_13,status=variable
new load.3000724552M1 bus1=RML1052194655.2.0,Phases=1,kv=0.12,kW=1.19588,pf=0.92,Vminpu=0.92,Vmaxpu=1.5,model=1,daily=RES2_14,status=variable
new load.3000724553M1 bus1=RML1052194641.2.0,Phases=1,kv=0.12,kW=0.38856,pf=0.92,Vminpu=0.92,Vmaxpu=1.5,model=1,daily=RES1_14,status=variable
new load.3000724554M1 bus1=RML1052194634.2.0,Phases=1,kv=0.12,kW=0.9353,pf=0.92,Vminpu=0.92,Vmaxpu=1.5,model=1,daily=RES3_13,status=variable
new load.3000724555M1 bus1=RML1052194697.2.0,Phases=1,kv=0.12,kW=1.16416,pf=0.92,Vminpu=0.92,Vmaxpu=1.5,model=1,daily=RES3_13,status=variable
new load.3000724544M1 bus1=RML1052194620.1.0,Phases=1,kv=0.12,kW=0.96232,pf=0.92,Vminpu=0.92,Vmaxpu=1.5,model=1,daily=RES2_14,status=variable
new load.3000724545M1 bus1=RML1052194606.1.0,Phases=1,kv=0.12,kW=1.22392,pf=0.92,Vminpu=0.92,Vmaxpu=1.5,model=1,daily=RES2_14,status=variable
new load.3000724546M1 bus1=RML1052194578.2.0,Phases=1,kv=0.12,kW=0.26982,pf=0.92,Vminpu=0.92,Vmaxpu=1.5,model=1,daily=RES1_14,status=variable
new load.3000724548M1 bus1=RML1052194550.1.0,Phases=1,kv=0.12,kW=0.52886,pf=0.92,Vminpu=0.92,Vmaxpu=1.5,model=1,daily=RES1_14,status=variable
new load.3000724549M1 bus1=RML1052194536.2.0,Phases=1,kv=0.12,kW=0.4641,pf=0.92,Vminpu=0.92,Vmaxpu=1.5,model=1,daily=RES1_14,status=variable
new load.3005277501M1 bus1=RML1056450578.1.2.0,Phases=2,kv=0.24,kW=0.76384,pf=0.92,Vminpu=0.92,Vmaxpu=1.5,model=1,daily=RES3_18,status=variable
new load.IP5642582M1 bus1=BBT1177037.1.3.0,Phases=2,kv=0.22,kW=0.1317,pf=0.92,Vminpu=0.92,Vmaxpu=1.5,model=1,daily=IP,status=variable
new load.IP5642596M1 bus1=BBT1177044.1.2.0,Phases=2,kv=0.22,kW=0.1317,pf=0.92,Vminpu=0.92,Vmaxpu=1.5,model=1,daily=IP,status=variable
new load.3010405014M1 bus1=RML1057874119.2.0,Phases=1,kv=0.127,kW=0.76938,pf=0.92,Vminpu=0.92,Vmaxpu=1.5,model=1,daily=RES2_6,status=variable
new load.3011437694M1 bus1=RML1057904877.3.0,Phases=1,kv=0.127,kW=2.23506,pf=0.92,Vminpu=0.92,Vmaxpu=1.5,model=1,daily=RES2_3,status=variable
new load.3011442711M1 bus1=RML1059515038.1.0,Phases=1,kv=0.127,kW=1.35418,pf=0.92,Vminpu=0.92,Vmaxpu=1.5,model=1,daily=RES2_3,status=variable
new load.IP5642505M1 bus1=BBT1176995.1.2.0,Phases=2,kv=0.22,kW=0.1317,pf=0.92,Vminpu=0.92,Vmaxpu=1.5,model=1,daily=IP,status=variable
new load.IP5642512M1 bus1=BBT1177002.1.2.0,Phases=2,kv=0.22,kW=0.1317,pf=0.92,Vminpu=0.92,Vmaxpu=1.5,model=1,daily=IP,status=variable
new load.3010342690M1 bus1=RML1052193192.1.0,Phases=1,kv=0.127,kW=0.66126,pf=0.92,Vminpu=0.92,Vmaxpu=1.5,model=1,daily=RES1_5,status=variable
new load.3012084443M1 bus1=RML1060198292.1.2.3.0,Phases=3,kv=0.22,kW=0.36038,pf=0.92,Vminpu=0.92,Vmaxpu=1.5,model=1,daily=COM1_18,status=variable
new load.3011777149M1 bus1=RML1059853096.1.2.0,Phases=2,kv=0.22,kW=0.62552,pf=0.92,Vminpu=0.92,Vmaxpu=1.5,model=1,daily=RES2_6,status=variable
new load.3010710303M1 bus1=RML1058217266.1.2.0,Phases=2,kv=0.22,kW=0.22666,pf=0.92,Vminpu=0.92,Vmaxpu=1.5,model=1,daily=RES1_14,status=variable
new load.3010844038M1 bus1=RML1058365498.2.3.0,Phases=2,kv=0.22,kW=0.5458,pf=0.92,Vminpu=0.92,Vmaxpu=1.5,model=1,daily=RES1_16,status=variable
new load.3011746357M1 bus1=RML1059852214.1.2.0,Phases=2,kv=0.22,kW=1.08748,pf=0.92,Vminpu=0.92,Vmaxpu=1.5,model=1,daily=RES4_9,status=variable
new load.3007604419M1 bus1=RML1057473859.2.3.0,Phases=2,kv=0.22,kW=0.4895,pf=0.92,Vminpu=0.92,Vmaxpu=1.5,model=1,daily=RES3_19,status=variable
new load.3007194221M1 bus1=RML1057221026.2.3.0,Phases=2,kv=0.22,kW=0.3515,pf=0.92,Vminpu=0.92,Vmaxpu=1.5,model=1,daily=RES1_11,status=variable
new load.3010188739M1 bus1=RML1057683054.1.2.0,Phases=2,kv=0.22,kW=0.36332,pf=0.92,Vminpu=0.92,Vmaxpu=1.5,model=1,daily=RES1_2,status=variable
new load.3003790620M1 bus1=RML1056634013.2.0,Phases=1,kv=0.127,kW=0.0347,pf=0.92,Vminpu=0.92,Vmaxpu=1.5,model=1,daily=RES1_7,status=variable
new load.3007435117M1 bus1=RML1052193220.2.0,Phases=1,kv=0.127,kW=0.57728,pf=0.92,Vminpu=0.92,Vmaxpu=1.5,model=1,daily=RES1_16,status=variable
new load.3004308052M1 bus1=RML1052193192.1.0,Phases=1,kv=0.127,kW=0.2957,pf=0.92,Vminpu=0.92,Vmaxpu=1.5,model=1,daily=RES1_23,status=variable
new load.3010115823M1 bus1=RML1057651267.1.0,Phases=1,kv=0.127,kW=1.28844,pf=0.92,Vminpu=0.92,Vmaxpu=1.5,model=1,daily=RES2_3,status=variable
new load.3010140746M1 bus1=RML1057668746.1.0,Phases=1,kv=0.127,kW=1.16298,pf=0.92,Vminpu=0.92,Vmaxpu=1.5,model=1,daily=RES2_4,status=variable
new load.3004903868M1 bus1=RML1052193255.1.3.0,Phases=2,kv=0.22,kW=0.55224,pf=0.92,Vminpu=0.92,Vmaxpu=1.5,model=1,daily=RES1_8,status=variable
new load.3003583714M1 bus1=RML1052193234.1.2.3.0,Phases=3,kv=0.22,kW=1.31076,pf=0.92,Vminpu=0.92,Vmaxpu=1.5,model=1,daily=RES5_6,status=variable
new load.IP5719883M1 bus1=BBT856199.1.2.0,Phases=2,kv=0.22,kW=0.1317,pf=0.92,Vminpu=0.92,Vmaxpu=1.5,model=1,daily=IP,status=variable
new load.IP5719988M1 bus1=BBT856220.1.2.0,Phases=2,kv=0.22,kW=0.1317,pf=0.92,Vminpu=0.92,Vmaxpu=1.5,model=1,daily=IP,status=variable
new load.3013211915M1 bus1=RML1051731941.1.0,Phases=1,kv=0.127,kW=0.94414,pf=0.92,Vminpu=0.92,Vmaxpu=1.5,model=1,daily=RES2_9,status=variable
new load.IP5704056M1 bus1=BBT856171.2.3.0,Phases=2,kv=0.22,kW=0.1317,pf=0.92,Vminpu=0.92,Vmaxpu=1.5,model=1,daily=IP,status=variable
new load.IP5704084M1 bus1=BBT856185.1.3.0,Phases=2,kv=0.22,kW=0.1317,pf=0.92,Vminpu=0.92,Vmaxpu=1.5,model=1,daily=IP,status=variable
new load.IP5719029M1 bus1=BBT856192.1.3.0,Phases=2,kv=0.22,kW=0.1317,pf=0.92,Vminpu=0.92,Vmaxpu=1.5,model=1,daily=IP,status=variable
new load.IP5719036M1 bus1=BBT856192.1.3.0,Phases=2,kv=0.22,kW=0.1317,pf=0.92,Vminpu=0.92,Vmaxpu=1.5,model=1,daily=IP,status=variable
new load.IP5719043M1 bus1=BBT856164.1.3.0,Phases=2,kv=0.22,kW=0.1317,pf=0.92,Vminpu=0.92,Vmaxpu=1.5,model=1,daily=IP,status=variable
new load.3007233157M1 bus1=RML1057237448.1.2.0,Phases=2,kv=0.22,kW=0.9977,pf=0.92,Vminpu=0.92,Vmaxpu=1.5,model=1,daily=RES2_11,status=variable
new load.3011873108M1 bus1=RML1051731962.3.0,Phases=1,kv=0.127,kW=0.74654,pf=0.92,Vminpu=0.92,Vmaxpu=1.5,model=1,daily=RES2_9,status=variable
new load.3011873119M1 bus1=RML1051731962.3.0,Phases=1,kv=0.127,kW=0.90024,pf=0.92,Vminpu=0.92,Vmaxpu=1.5,model=1,daily=RES2_9,status=variable
new load.3011903230M1 bus1=RML1051731899.2.0,Phases=1,kv=0.127,kW=0.78312,pf=0.92,Vminpu=0.92,Vmaxpu=1.5,model=1,daily=RES2_9,status=variable
new load.3010972028M1 bus1=RML1058537943.3.0,Phases=1,kv=0.127,kW=0.77034,pf=0.92,Vminpu=0.92,Vmaxpu=1.5,model=1,daily=RES3_17,status=variable
new load.3007438354M1 bus1=RML1057351009.1.2.3.0,Phases=3,kv=0.22,kW=0.69322,pf=0.92,Vminpu=0.92,Vmaxpu=1.5,model=1,daily=RES2_17,status=variable
new load.3012114456M1 bus1=RML1060261305.3.0,Phases=1,kv=0.127,kW=1.1772,pf=0.92,Vminpu=0.92,Vmaxpu=1.5,model=1,daily=RES2_14,status=variable
new load.3010116389M1 bus1=RML1051731948.2.0,Phases=1,kv=0.127,kW=0.85428,pf=0.92,Vminpu=0.92,Vmaxpu=1.5,model=1,daily=RES1_2,status=variable
new load.3007135792M1 bus1=RML1051731920.1.0,Phases=1,kv=0.127,kW=0.57296,pf=0.92,Vminpu=0.92,Vmaxpu=1.5,model=1,daily=RES2_10,status=variable
new load.3007582584M1 bus1=RML1057457794.3.0,Phases=1,kv=0.127,kW=0.1644,pf=0.92,Vminpu=0.92,Vmaxpu=1.5,model=1,daily=RES1_19,status=variable
new load.3004126002M1 bus1=RML1051732004.1.2.3.0,Phases=3,kv=0.22,kW=1.3478,pf=0.92,Vminpu=0.92,Vmaxpu=1.5,model=1,daily=RES3_15,status=variable
new load.3003803393M1 bus1=RML1051732011.1.2.3.0,Phases=3,kv=0.22,kW=2.17206,pf=0.92,Vminpu=0.92,Vmaxpu=1.5,model=1,daily=RES3_9,status=variable
new load.3003927715M1 bus1=RML1051732095.1.2.0,Phases=2,kv=0.22,kW=1.56164,pf=0.92,Vminpu=0.92,Vmaxpu=1.5,model=1,daily=RES2_11,status=variable
new load.3005460734M1 bus1=RML1051732060.1.0,Phases=1,kv=0.127,kW=0.6938,pf=0.92,Vminpu=0.92,Vmaxpu=1.5,model=1,daily=RES1_1,status=variable
new load.3011550451M1 bus1=RML1059683451.1.0,Phases=1,kv=0.127,kW=1.94152,pf=0.92,Vminpu=0.92,Vmaxpu=1.5,model=1,daily=RES2_4,status=variable
new load.3003074098M1 bus1=RML1051732046.1.0,Phases=1,kv=0.127,kW=0.91404,pf=0.92,Vminpu=0.92,Vmaxpu=1.5,model=1,daily=RES2_21,status=variable
new load.3003074099M1 bus1=RML1051732046.1.0,Phases=1,kv=0.127,kW=1.10612,pf=0.92,Vminpu=0.92,Vmaxpu=1.5,model=1,daily=RES2_21,status=variable
new load.3003074102M1 bus1=RML1051732053.1.0,Phases=1,kv=0.127,kW=0.16492,pf=0.92,Vminpu=0.92,Vmaxpu=1.5,model=1,daily=RES1_18,status=variable
new load.3006276786M1 bus1=RML1056675194.1.2.0,Phases=2,kv=0.24,kW=0.20274,pf=0.92,Vminpu=0.92,Vmaxpu=1.5,model=1,daily=RES2_20,status=variable
new load.3002895452M1 bus1=RML1056383532.1.2.0,Phases=2,kv=0.24,kW=0.77112,pf=0.92,Vminpu=0.92,Vmaxpu=1.5,model=1,daily=RES3_13,status=variable
new load.3002895453M1 bus1=RML1057023038.1.2.0,Phases=2,kv=0.24,kW=1.0149,pf=0.92,Vminpu=0.92,Vmaxpu=1.5,model=1,daily=RES3_13,status=variable
new load.3002895454M1 bus1=RML1056383532.1.2.0,Phases=2,kv=0.24,kW=0.0108,pf=0.92,Vminpu=0.92,Vmaxpu=1.5,model=1,daily=RES1_14,status=variable
new load.3002895455M1 bus1=RML1056383532.1.2.0,Phases=2,kv=0.24,kW=3.77758,pf=0.92,Vminpu=0.92,Vmaxpu=1.5,model=1,daily=RES1_14,status=variable
new load.3002895456M1 bus1=RML1056383532.1.2.0,Phases=2,kv=0.24,kW=1.48552,pf=0.92,Vminpu=0.92,Vmaxpu=1.5,model=1,daily=RES2_14,status=variable
new load.3002895457M1 bus1=RML1056383532.1.2.0,Phases=2,kv=0.24,kW=1.18406,pf=0.92,Vminpu=0.92,Vmaxpu=1.5,model=1,daily=RES3_13,status=variable
new load.IP5389483M1 bus1=BBT1178808.1.2.0,Phases=2,kv=0.24,kW=0.08064,pf=0.92,Vminpu=0.92,Vmaxpu=1.5,model=1,daily=IP,status=variable
new load.IP5389665M1 bus1=BBT1178871.1.2.0,Phases=2,kv=0.24,kW=0.08064,pf=0.92,Vminpu=0.92,Vmaxpu=1.5,model=1,daily=IP,status=variable
new load.IP5389672M1 bus1=BBT1178864.1.2.0,Phases=2,kv=0.24,kW=0.08064,pf=0.92,Vminpu=0.92,Vmaxpu=1.5,model=1,daily=IP,status=variable
new load.IP5389679M1 bus1=BBT1178857.1.2.0,Phases=2,kv=0.24,kW=0.08064,pf=0.92,Vminpu=0.92,Vmaxpu=1.5,model=1,daily=IP,status=variable
new load.IP5389420M1 bus1=BBT1178829.1.2.0,Phases=2,kv=0.24,kW=0.08064,pf=0.92,Vminpu=0.92,Vmaxpu=1.5,model=1,daily=IP,status=variable
new load.IP5389441M1 bus1=BBT1178850.1.2.0,Phases=2,kv=0.24,kW=0.08064,pf=0.92,Vminpu=0.92,Vmaxpu=1.5,model=1,daily=IP,status=variable
new load.IP5389448M1 bus1=BBT1178843.1.2.0,Phases=2,kv=0.24,kW=0.08064,pf=0.92,Vminpu=0.92,Vmaxpu=1.5,model=1,daily=IP,status=variable
new load.IP5389455M1 bus1=BBT1178836.1.2.0,Phases=2,kv=0.24,kW=0.1129,pf=0.92,Vminpu=0.92,Vmaxpu=1.5,model=1,daily=IP,status=variable
new load.IP5389462M1 bus1=BBT1178822.1.2.0,Phases=2,kv=0.24,kW=0.08064,pf=0.92,Vminpu=0.92,Vmaxpu=1.5,model=1,daily=IP,status=variable
new load.IP5389469M1 bus1=BBT1178815.1.2.0,Phases=2,kv=0.24,kW=0.08064,pf=0.92,Vminpu=0.92,Vmaxpu=1.5,model=1,daily=IP,status=variable
new load.3002895465M1 bus1=RML1056383532.1.2.0,Phases=2,kv=0.24,kW=0.47506,pf=0.92,Vminpu=0.92,Vmaxpu=1.5,model=1,daily=RES5_15,status=variable
new load.3011562396M1 bus1=RML1056383532.1.2.0,Phases=2,kv=0.24,kW=0.84236,pf=0.92,Vminpu=0.92,Vmaxpu=1.5,model=1,daily=RUR2_8,status=variable
new load.3011562398M1 bus1=RML1056383532.1.2.0,Phases=2,kv=0.24,kW=0.73976,pf=0.92,Vminpu=0.92,Vmaxpu=1.5,model=1,daily=RUR2_8,status=variable
new load.3006684754M1 bus1=RML1056383532.1.2.0,Phases=2,kv=0.24,kW=1.90764,pf=0.92,Vminpu=0.92,Vmaxpu=1.5,model=1,daily=RES3_4,status=variable
new load.3013176494M1 bus1=RML1060635040.1.2.0,Phases=2,kv=0.24,kW=3.76826,pf=0.92,Vminpu=0.92,Vmaxpu=1.5,model=1,daily=SERVP3_5,status=variable
new load.3002895458M1 bus1=RML1060744434.1.2.0,Phases=2,kv=0.24,kW=1.12934,pf=0.92,Vminpu=0.92,Vmaxpu=1.5,model=1,daily=RES3_13,status=variable
new load.3002895460M1 bus1=RML1056383532.1.2.0,Phases=2,kv=0.24,kW=0.35322,pf=0.92,Vminpu=0.92,Vmaxpu=1.5,model=1,daily=RES3_13,status=variable
new load.3002895461M1 bus1=RML1056383532.1.2.0,Phases=2,kv=0.24,kW=0.42094,pf=0.92,Vminpu=0.92,Vmaxpu=1.5,model=1,daily=RES1_14,status=variable
new load.3002895462M1 bus1=RML1056383532.1.2.0,Phases=2,kv=0.24,kW=0.7194,pf=0.92,Vminpu=0.92,Vmaxpu=1.5,model=1,daily=RES2_14,status=variable
new load.3004241655M1 bus1=RML1052193339.3.0,Phases=1,kv=0.127,kW=0.01196,pf=0.92,Vminpu=0.92,Vmaxpu=1.5,model=1,daily=RES1_19,status=variable
new load.3004658206M1 bus1=RML1056634013.2.0,Phases=1,kv=0.127,kW=0.50586,pf=0.92,Vminpu=0.92,Vmaxpu=1.5,model=1,daily=RES1_3,status=variable
new load.3004760659M1 bus1=RML1052193318.2.3.0,Phases=2,kv=0.22,kW=0.97352,pf=0.92,Vminpu=0.92,Vmaxpu=1.5,model=1,daily=RES1_5,status=variable
new load.3000195212M1 bus1=RML1052193325.3.0,Phases=1,kv=0.127,kW=0.5106,pf=0.92,Vminpu=0.92,Vmaxpu=1.5,model=1,daily=RES1_2,status=variable
new load.3000195213M1 bus1=RML1052193332.1.2.0,Phases=2,kv=0.22,kW=1.65658,pf=0.92,Vminpu=0.92,Vmaxpu=1.5,model=1,daily=RES2_3,status=variable
new load.3003263367M1 bus1=RML1052193332.1.2.0,Phases=2,kv=0.22,kW=1.61882,pf=0.92,Vminpu=0.92,Vmaxpu=1.5,model=1,daily=COM2_19,status=variable
new load.3003672799M1 bus1=RML1052193136.1.3.0,Phases=2,kv=0.22,kW=2.09418,pf=0.92,Vminpu=0.92,Vmaxpu=1.5,model=1,daily=COM1_8,status=variable
new load.3003402768M1 bus1=RML1052193206.1.0,Phases=1,kv=0.127,kW=1.20244,pf=0.92,Vminpu=0.92,Vmaxpu=1.5,model=1,daily=RES2_2,status=variable
new load.3000195200M1 bus1=RML1052193143.2.0,Phases=1,kv=0.127,kW=0.78262,pf=0.92,Vminpu=0.92,Vmaxpu=1.5,model=1,daily=RES3_4,status=variable
new load.3000195205M1 bus1=RML1052193220.2.0,Phases=1,kv=0.127,kW=0.63826,pf=0.92,Vminpu=0.92,Vmaxpu=1.5,model=1,daily=RES1_2,status=variable
new load.3000195206M1 bus1=RML1052193227.3.0,Phases=1,kv=0.127,kW=1.28398,pf=0.92,Vminpu=0.92,Vmaxpu=1.5,model=1,daily=RES3_4,status=variable
new load.3000195207M1 bus1=RML1052193248.3.0,Phases=1,kv=0.127,kW=1.28844,pf=0.92,Vminpu=0.92,Vmaxpu=1.5,model=1,daily=RES2_3,status=variable
new load.3000195211M1 bus1=RML1052193290.1.0,Phases=1,kv=0.127,kW=0.34368,pf=0.92,Vminpu=0.92,Vmaxpu=1.5,model=1,daily=RES1_2,status=variable
new load.3000195187M1 bus1=RML1052193185.1.0,Phases=1,kv=0.127,kW=1.13068,pf=0.92,Vminpu=0.92,Vmaxpu=1.5,model=1,daily=RES2_3,status=variable
new load.3000195188M1 bus1=RML1052193171.2.0,Phases=1,kv=0.127,kW=2.18246,pf=0.92,Vminpu=0.92,Vmaxpu=1.5,model=1,daily=RES2_3,status=variable
new load.3000195189M1 bus1=RML1052193171.2.0,Phases=1,kv=0.127,kW=0.7168,pf=0.92,Vminpu=0.92,Vmaxpu=1.5,model=1,daily=RES1_2,status=variable
new load.3000195190M1 bus1=RML1052193164.1.2.0,Phases=2,kv=0.22,kW=1.38792,pf=0.92,Vminpu=0.92,Vmaxpu=1.5,model=1,daily=RES3_4,status=variable
new load.3000195191M1 bus1=RML1052193150.1.0,Phases=1,kv=0.127,kW=0.4733,pf=0.92,Vminpu=0.92,Vmaxpu=1.5,model=1,daily=RES2_3,status=variable
new load.3000195193M1 bus1=RML1052193157.3.0,Phases=1,kv=0.127,kW=2.23506,pf=0.92,Vminpu=0.92,Vmaxpu=1.5,model=1,daily=RES2_3,status=variable
new load.3000195181M1 bus1=RML1052193241.2.0,Phases=1,kv=0.127,kW=0.6088,pf=0.92,Vminpu=0.92,Vmaxpu=1.5,model=1,daily=RES1_2,status=variable
new load.3000195182M1 bus1=RML1052193255.1.3.0,Phases=2,kv=0.22,kW=0.54006,pf=0.92,Vminpu=0.92,Vmaxpu=1.5,model=1,daily=RES1_2,status=variable
new load.3000195183M1 bus1=RML1052193213.2.3.0,Phases=2,kv=0.22,kW=1.25952,pf=0.92,Vminpu=0.92,Vmaxpu=1.5,model=1,daily=RES3_4,status=variable
new load.3000195185M1 bus1=RML1052193206.1.0,Phases=1,kv=0.127,kW=1.57768,pf=0.92,Vminpu=0.92,Vmaxpu=1.5,model=1,daily=RES2_3,status=variable
new load.3000195186M1 bus1=RML1052193178.2.0,Phases=1,kv=0.127,kW=0.96228,pf=0.92,Vminpu=0.92,Vmaxpu=1.5,model=1,daily=RES1_2,status=variable
new load.3000724310M1 bus1=RML1052195278.1.0,Phases=1,kv=0.12,kW=1.01838,pf=0.92,Vminpu=0.92,Vmaxpu=1.5,model=1,daily=RES2_14,status=variable
new load.3010726888M1 bus1=RML1058194810.1.2.0,Phases=2,kv=0.24,kW=0.472,pf=0.92,Vminpu=0.92,Vmaxpu=1.5,model=1,daily=RUR2_7,status=variable
new load.3010811089M1 bus1=RML1058269969.1.2.0,Phases=2,kv=0.24,kW=1.32032,pf=0.92,Vminpu=0.92,Vmaxpu=1.5,model=1,daily=RUR1_12,status=variable
new load.3000724513M1 bus1=RML1052193115.1.0,Phases=1,kv=0.12,kW=0.36816,pf=0.92,Vminpu=0.92,Vmaxpu=1.5,model=1,daily=RES3_13,status=variable
new load.3000724514M1 bus1=RML1052193108.2.0,Phases=1,kv=0.12,kW=0.92494,pf=0.92,Vminpu=0.92,Vmaxpu=1.5,model=1,daily=RES2_14,status=variable
new load.3000724515M1 bus1=RML1052193101.2.0,Phases=1,kv=0.12,kW=0.75678,pf=0.92,Vminpu=0.92,Vmaxpu=1.5,model=1,daily=RES2_14,status=variable
new load.3000724516M1 bus1=RML1052193094.2.0,Phases=1,kv=0.12,kW=1.1542,pf=0.92,Vminpu=0.92,Vmaxpu=1.5,model=1,daily=RES3_13,status=variable
new load.3000724517M1 bus1=RML1052193087.2.0,Phases=1,kv=0.12,kW=0.654,pf=0.92,Vminpu=0.92,Vmaxpu=1.5,model=1,daily=RES2_14,status=variable
new load.3000724518M1 bus1=RML1052193080.1.0,Phases=1,kv=0.12,kW=1.27064,pf=0.92,Vminpu=0.92,Vmaxpu=1.5,model=1,daily=RES2_14,status=variable
new load.3013391817M1 bus1=RML1060730739.1.2.0,Phases=2,kv=0.24,kW=0.27858,pf=0.92,Vminpu=0.92,Vmaxpu=1.5,model=1,daily=RES1_10,status=variable
new load.IP5720898M1 bus1=BBT1176953.1.2.0,Phases=2,kv=0.24,kW=0.1317,pf=0.92,Vminpu=0.92,Vmaxpu=1.5,model=1,daily=IP,status=variable
new load.IP5720912M1 bus1=BBT1176960.1.2.0,Phases=2,kv=0.24,kW=0.1317,pf=0.92,Vminpu=0.92,Vmaxpu=1.5,model=1,daily=IP,status=variable
new load.IP5720926M1 bus1=BBT1176967.1.2.0,Phases=2,kv=0.24,kW=0.1317,pf=0.92,Vminpu=0.92,Vmaxpu=1.5,model=1,daily=IP,status=variable
new load.IP5720940M1 bus1=BBT1176974.1.2.0,Phases=2,kv=0.24,kW=0.1317,pf=0.92,Vminpu=0.92,Vmaxpu=1.5,model=1,daily=IP,status=variable
new load.IP5720884M1 bus1=BBT1176939.1.2.0,Phases=2,kv=0.24,kW=0.1317,pf=0.92,Vminpu=0.92,Vmaxpu=1.5,model=1,daily=IP,status=variable
new load.IP5378794M1 bus1=BBT1176932.1.2.0,Phases=2,kv=0.24,kW=0.1317,pf=0.92,Vminpu=0.92,Vmaxpu=1.5,model=1,daily=IP,status=variable
new load.3005998205M1 bus1=RML1052193024.2.0,Phases=1,kv=0.12,kW=0.24102,pf=0.92,Vminpu=0.92,Vmaxpu=1.5,model=1,daily=RES1_11,status=variable
new load.3004028995M1 bus1=RML1052192996.2.0,Phases=1,kv=0.12,kW=0.84186,pf=0.92,Vminpu=0.92,Vmaxpu=1.5,model=1,daily=RES1_14,status=variable
new load.3004551823M1 bus1=RML1052192940.2.0,Phases=1,kv=0.12,kW=1.82204,pf=0.92,Vminpu=0.92,Vmaxpu=1.5,model=1,daily=RES3_4,status=variable