new load.3004268800M1 bus1=BMT150353307.1.2.3.0,Phases=3,kv=13.8,kW=6.19306,pf=0.92,Vminpu=0.93,Vmaxpu=1.5,model=1,daily=A4-1,status=variable
new load.3009001274M1 bus1=BMT156673648.1.2.3.0,Phases=3,kv=13.8,kW=33.65454,pf=0.92,Vminpu=0.93,Vmaxpu=1.5,model=1,daily=A4-2,status=variable
new load.3009001283M1 bus1=BMT160806714.1.2.3.0,Phases=3,kv=13.8,kW=20.19272,pf=0.92,Vminpu=0.93,Vmaxpu=1.5,model=1,daily=A4-2,status=variable
new load.3009013124M1 bus1=BMT168239159.1.2.3.0,Phases=3,kv=13.8,kW=89.74546,pf=0.92,Vminpu=0.93,Vmaxpu=1.5,model=1,daily=A4-2,status=variable
new load.3009014042M1 bus1=BMT150354152.1.2.3.0,Phases=3,kv=13.8,kW=142.77724,pf=0.92,Vminpu=0.93,Vmaxpu=1.5,model=1,daily=A4-6,status=variable
new load.3009015323M1 bus1=BMT103773392.1.2.3.0,Phases=3,kv=13.8,kW=11.17302,pf=0.92,Vminpu=0.93,Vmaxpu=1.5,model=1,daily=A4-1,status=variable
new load.3009016547M1 bus1=BMT160807387.1.2.3.0,Phases=3,kv=13.8,kW=62.92166,pf=0.92,Vminpu=0.93,Vmaxpu=1.5,model=1,daily=A4-3,status=variable
new load.3009016913M1 bus1=BMT150353378.1.2.3.0,Phases=3,kv=13.8,kW=11.21818,pf=0.92,Vminpu=0.93,Vmaxpu=1.5,model=1,daily=A4-2,status=variable
new load.3009017243M1 bus1=BMT150354166.1.2.3.0,Phases=3,kv=13.8,kW=14.36532,pf=0.92,Vminpu=0.93,Vmaxpu=1.5,model=1,daily=A4-1,status=variable
new load.3009017285M1 bus1=BMT150354193.1.2.3.0,Phases=3,kv=13.8,kW=168.25914,pf=0.92,Vminpu=0.93,Vmaxpu=1.5,model=1,daily=A4-5,status=variable
new load.3009017662M1 bus1=BMT172959877.1.2.3.0,Phases=3,kv=13.8,kW=113.25898,pf=0.92,Vminpu=0.93,Vmaxpu=1.5,model=1,daily=A4-3,status=variable
new load.3009020594M1 bus1=BMT103773126.1.2.3.0,Phases=3,kv=13.8,kW=58.72688,pf=0.92,Vminpu=0.93,Vmaxpu=1.5,model=1,daily=A4-3,status=variable
new load.3009900044M1 bus1=BMT103801231.1.2.3.0,Phases=3,kv=13.8,kW=539.50496,pf=0.92,Vminpu=0.93,Vmaxpu=1.5,model=1,daily=A4-7,status=variable
new load.3010584416M1 bus1=BMT103768597.1.2.3.0,Phases=3,kv=13.8,kW=23.9422,pf=0.92,Vminpu=0.93,Vmaxpu=1.5,model=1,daily=A4-1,status=variable
new load.3010997819M1 bus1=BMT166423876.1.2.3.0,Phases=3,kv=13.8,kW=87.50182,pf=0.92,Vminpu=0.93,Vmaxpu=1.5,model=1,daily=A4-2,status=variable
new load.3011086796M1 bus1=BMT99457164.1.2.3.0,Phases=3,kv=13.8,kW=118.91274,pf=0.92,Vminpu=0.93,Vmaxpu=1.5,model=1,daily=A4-2,status=variable
new load.3011204251M1 bus1=BMT150354129.1.2.3.0,Phases=3,kv=13.8,kW=16.7791,pf=0.92,Vminpu=0.93,Vmaxpu=1.5,model=1,daily=A4-3,status=variable
new load.3011360026M1 bus1=BMT150340616.1.2.3.0,Phases=3,kv=13.8,kW=2736.66866,pf=0.92,Vminpu=0.93,Vmaxpu=1.5,model=1,daily=A4-7,status=variable
new load.3012100859M1 bus1=BMT151761828.1.2.3.0,Phases=3,kv=13.8,kW=6.38458,pf=0.92,Vminpu=0.93,Vmaxpu=1.5,model=1,daily=A4-1,status=variable
new load.3013132370M1 bus1=BMT162651262.1.2.3.0,Phases=3,kv=13.8,kW=8.97454,pf=0.92,Vminpu=0.93,Vmaxpu=1.5,model=1,daily=A4-2,status=variable
new load.3013212637M1 bus1=BMT152518529.1.2.3.0,Phases=3,kv=13.8,kW=505.5086,pf=0.92,Vminpu=0.93,Vmaxpu=1.5,model=1,daily=A4-6,status=variable
new load.3013384341M1 bus1=BMT163884033.1.2.3.0,Phases=3,kv=13.8,kW=74.04,pf=0.92,Vminpu=0.93,Vmaxpu=1.5,model=1,daily=A4-2,status=variable
