new transformer.1107696 Phases=1,Windings=3,Buses=[BMT172861143.2 BBT24742314.1.0 BBT24742314.0.2],Conns=[wye wye wye],kvs=[7.967 0.12 0.12],kvas=[5.000000000 5.000000000 5.000000000],Taps=[1,1.000000000,1.000000000],%loadloss=1.900000000,%noloadloss=0.600000000
new transformer.1123586 Phases=1,Windings=3,Buses=[BMT172861126.2 BBT27968656.1.0 BBT27968656.0.2],Conns=[wye wye wye],kvs=[7.967 0.12 0.12],kvas=[5.000000000 5.000000000 5.000000000],Taps=[1,1.000000000,1.000000000],%loadloss=1.900000000,%noloadloss=0.600000000
new transformer.1123803 Phases=1,Windings=3,Buses=[BMT150353654.3 BBT28032839.1.0 BBT28032839.0.2],Conns=[wye wye wye],kvs=[7.967 0.12 0.12],kvas=[15.000000000 15.000000000 15.000000000],Taps=[1,1.000000000,1.000000000],%loadloss=1.600000000,%noloadloss=0.400000000
new transformer.1170038 Phases=1,Windings=3,Buses=[BMT165138618.3 BBT36297389.1.0 BBT36297389.0.2],Conns=[wye wye wye],kvs=[7.967 0.12 0.12],kvas=[5.000000000 5.000000000 5.000000000],Taps=[1,1.000000000,1.000000000],%loadloss=1.900000000,%noloadloss=0.600000000
new transformer.1171053 Phases=1,Windings=3,Buses=[BMT165945467.1 BBT36472039.1.0 BBT36472039.0.2],Conns=[wye wye wye],kvs=[7.967 0.12 0.12],kvas=[5.000000000 5.000000000 5.000000000],Taps=[1,1.000000000,1.000000000],%loadloss=1.900000000,%noloadloss=0.600000000
new transformer.1293665 Phases=1,Windings=3,Buses=[BMT148873651.1 BBT78677909.1.0 BBT78677909.0.2],Conns=[wye wye wye],kvs=[7.967 0.12 0.12],kvas=[15.000000000 15.000000000 15.000000000],Taps=[1,1.000000000,1.000000000],%loadloss=1.600000000,%noloadloss=0.400000000
new transformer.1316856 Phases=1,Windings=3,Buses=[BMT103801714.1 BBT91817609.1.0 BBT91817609.0.2],Conns=[wye wye wye],kvs=[7.967 0.12 0.12],kvas=[5.000000000 5.000000000 5.000000000],Taps=[1,1.000000000,1.000000000],%loadloss=1.900000000,%noloadloss=0.600000000
new transformer.131699 Phases=1,Windings=3,Buses=[BMT171152961.2 BBT1176925.1.0 BBT1176925.0.2],Conns=[wye wye wye],kvs=[7.967 0.12 0.12],kvas=[25.000000000 25.000000000 25.000000000],Taps=[1,1.000000000,1.000000000],%loadloss=1.420000000,%noloadloss=0.320000000
new transformer.131706 Phases=3,Windings=2,Buses=[BMT150353115.1.2.3 BBT1176981.1.2.3.0],Conns=[delta wye],kvs=[13.8 0.22],kvas=[30.000000000 30.000000000],Taps=[1,1.000000000],%loadloss=1.667000000,%noloadloss=0.433333000
new transformer.131713 Phases=3,Windings=2,Buses=[BMT171152949.1.2.3 BBT1177093.1.2.3.0],Conns=[delta wye],kvs=[13.8 0.22],kvas=[30.000000000 30.000000000],Taps=[1,1.000000000],%loadloss=1.667000000,%noloadloss=0.433333000
new transformer.131727 Phases=1,Windings=3,Buses=[BMT171152957.2 BBT1177219.1.0 BBT1177219.0.2],Conns=[wye wye wye],kvs=[7.967 0.12 0.12],kvas=[35.000000000 35.000000000 35.000000000],Taps=[1,1.000000000,1.000000000],%loadloss=1.293000000,%noloadloss=0.342857000
new transformer.131734 Phases=1,Windings=3,Buses=[BMT103774120.3 BBT1177275.1.0 BBT1177275.0.2],Conns=[wye wye wye],kvs=[7.967 0.12 0.12],kvas=[10.000000000 10.000000000 10.000000000],Taps=[1,1.000000000,1.000000000],%loadloss=1.800000000,%noloadloss=0.450000000
new transformer.131741 Phases=3,Windings=2,Buses=[BMT161962571.1.2.3 BBT1177331.1.2.3.0],Conns=[delta wye],kvs=[13.8 0.22],kvas=[75.000000000 75.000000000],Taps=[1,1.000000000],%loadloss=1.340000000,%noloadloss=0.340000000
new transformer.131748 Phases=3,Windings=2,Buses=[BMT150354216.1.2.3 BBT1177422.1.2.3.0],Conns=[delta wye],kvs=[13.8 0.22],kvas=[45.000000000 45.000000000],Taps=[1,1.000000000],%loadloss=1.522000000,%noloadloss=0.377777000
new transformer.131755 Phases=1,Windings=3,Buses=[BMT173104526.2 BBT1177457.1.0 BBT1177457.0.2],Conns=[wye wye wye],kvs=[7.967 0.12 0.12],kvas=[10.000000000 10.000000000 10.000000000],Taps=[1,1.000000000,1.000000000],%loadloss=1.800000000,%noloadloss=0.450000000
new transformer.131762 Phases=1,Windings=3,Buses=[BMT171142277.2 BBT1177471.1.0 BBT1177471.0.2],Conns=[wye wye wye],kvs=[7.967 0.12 0.12],kvas=[35.000000000 35.000000000 35.000000000],Taps=[1,1.000000000,1.000000000],%loadloss=1.293000000,%noloadloss=0.342857000
new transformer.131776 Phases=1,Windings=3,Buses=[BMT164979873.3 BBT1177583.1.0 BBT1177583.0.2],Conns=[wye wye wye],kvs=[7.967 0.12 0.12],kvas=[10.000000000 10.000000000 10.000000000],Taps=[1,1.000000000,1.000000000],%loadloss=1.800000000,%noloadloss=0.450000000
new transformer.131783 Phases=1,Windings=3,Buses=[BMT150354252.3 BBT1177639.1.0 BBT1177639.0.2],Conns=[wye wye wye],kvs=[7.967 0.12 0.12],kvas=[35.000000000 35.000000000 35.000000000],Taps=[1,1.000000000,1.000000000],%loadloss=1.293000000,%noloadloss=0.342857000
new transformer.131804 Phases=1,Windings=3,Buses=[BMT158128686.2 BBT1177758.1.0 BBT1177758.0.2],Conns=[wye wye wye],kvs=[7.967 0.12 0.12],kvas=[10.000000000 10.000000000 10.000000000],Taps=[1,1.000000000,1.000000000],%loadloss=1.800000000,%noloadloss=0.450000000
new transformer.131811 Phases=1,Windings=3,Buses=[BMT171152959.2 BBT1177814.1.0 BBT1177814.0.2],Conns=[wye wye wye],kvs=[7.967 0.12 0.12],kvas=[25.000000000 25.000000000 25.000000000],Taps=[1,1.000000000,1.000000000],%loadloss=1.420000000,%noloadloss=0.320000000
new transformer.131818 Phases=3,Windings=2,Buses=[BMT172328743.1.2.3 BBT1177877.1.2.3.0],Conns=[delta wye],kvs=[13.8 0.22],kvas=[45.000000000 45.000000000],Taps=[1,1.000000000],%loadloss=1.522000000,%noloadloss=0.377777000
new transformer.1318186 Phases=3,Windings=2,Buses=[BMT170162441.1.2.3 BBT92374368.1.2.3.0],Conns=[delta wye],kvs=[13.8 0.22],kvas=[45.000000000 45.000000000],Taps=[1,1.000000000],%loadloss=1.522000000,%noloadloss=0.377777000
new transformer.1318200 Phases=3,Windings=2,Buses=[BMT170162440.1.2.3 BBT92375334.1.2.3.0],Conns=[delta wye],kvs=[13.8 0.22],kvas=[45.000000000 45.000000000],Taps=[1,1.000000000],%loadloss=1.522000000,%noloadloss=0.377777000
new transformer.131825 Phases=1,Windings=3,Buses=[BMT150353241.3 BBT1177975.1.0 BBT1177975.0.2],Conns=[wye wye wye],kvs=[7.967 0.12 0.12],kvas=[25.000000000 25.000000000 25.000000000],Taps=[1,1.000000000,1.000000000],%loadloss=1.420000000,%noloadloss=0.320000000
new transformer.131832 Phases=3,Windings=2,Buses=[BMT150353120.1.2.3 BBT1177989.1.2.3.0],Conns=[delta wye],kvs=[13.8 0.22],kvas=[75.000000000 75.000000000],Taps=[1,1.000000000],%loadloss=1.340000000,%noloadloss=0.340000000
new transformer.131839 Phases=1,Windings=3,Buses=[BMT150997760.2 BBT1178108.1.0 BBT1178108.0.2],Conns=[wye wye wye],kvs=[7.967 0.12 0.12],kvas=[25.000000000 25.000000000 25.000000000],Taps=[1,1.000000000,1.000000000],%loadloss=1.420000000,%noloadloss=0.320000000
new transformer.131846 Phases=1,Windings=3,Buses=[BMT164979874.3 BBT1178199.1.0 BBT1178199.0.2],Conns=[wye wye wye],kvs=[7.967 0.12 0.12],kvas=[15.000000000 15.000000000 15.000000000],Taps=[1,1.000000000,1.000000000],%loadloss=1.600000000,%noloadloss=0.400000000
new transformer.131853 Phases=1,Windings=3,Buses=[BMT163760106.1 BBT1178290.1.0 BBT1178290.0.2],Conns=[wye wye wye],kvs=[7.967 0.12 0.12],kvas=[10.000000000 10.000000000 10.000000000],Taps=[1,1.000000000,1.000000000],%loadloss=1.800000000,%noloadloss=0.450000000
new transformer.1079129 Phases=1,Windings=3,Buses=[BMT150353636.3 BBT17651251.1.0 BBT17651251.0.2],Conns=[wye wye wye],kvs=[7.967 0.12 0.12],kvas=[5.000000000 5.000000000 5.000000000],Taps=[1,1.000000000,1.000000000],%loadloss=1.900000000,%noloadloss=0.600000000
new transformer.1079171 Phases=1,Windings=3,Buses=[BMT166967088.2 BBT17669332.1.0 BBT17669332.0.2],Conns=[wye wye wye],kvs=[7.967 0.12 0.12],kvas=[5.000000000 5.000000000 5.000000000],Taps=[1,1.000000000,1.000000000],%loadloss=1.900000000,%noloadloss=0.600000000
new transformer.1079178 Phases=1,Windings=3,Buses=[BMT168836084.2 BBT17669437.1.0 BBT17669437.0.2],Conns=[wye wye wye],kvs=[7.967 0.12 0.12],kvas=[5.000000000 5.000000000 5.000000000],Taps=[1,1.000000000,1.000000000],%loadloss=1.900000000,%noloadloss=0.600000000
new transformer.1079185 Phases=1,Windings=3,Buses=[BMT168836087.2 BBT17669577.1.0 BBT17669577.0.2],Conns=[wye wye wye],kvs=[7.967 0.12 0.12],kvas=[5.000000000 5.000000000 5.000000000],Taps=[1,1.000000000,1.000000000],%loadloss=1.900000000,%noloadloss=0.600000000
new transformer.1079192 Phases=1,Windings=3,Buses=[BMT168836092.2 BBT17669745.1.0 BBT17669745.0.2],Conns=[wye wye wye],kvs=[7.967 0.12 0.12],kvas=[5.000000000 5.000000000 5.000000000],Taps=[1,1.000000000,1.000000000],%loadloss=1.900000000,%noloadloss=0.600000000
new transformer.1079199 Phases=1,Windings=3,Buses=[BMT168836089.2 BBT17669843.1.0 BBT17669843.0.2],Conns=[wye wye wye],kvs=[7.967 0.12 0.12],kvas=[5.000000000 5.000000000 5.000000000],Taps=[1,1.000000000,1.000000000],%loadloss=1.900000000,%noloadloss=0.600000000
new transformer.1079206 Phases=1,Windings=3,Buses=[BMT168248569.2 BBT17673308.1.0 BBT17673308.0.2],Conns=[wye wye wye],kvs=[7.967 0.12 0.12],kvas=[5.000000000 5.000000000 5.000000000],Taps=[1,1.000000000,1.000000000],%loadloss=1.900000000,%noloadloss=0.600000000
new transformer.1079248 Phases=1,Windings=3,Buses=[BMT172861134.2 BBT17691746.1.0 BBT17691746.0.2],Conns=[wye wye wye],kvs=[7.967 0.12 0.12],kvas=[5.000000000 5.000000000 5.000000000],Taps=[1,1.000000000,1.000000000],%loadloss=1.900000000,%noloadloss=0.600000000
new transformer.1079269 Phases=1,Windings=3,Buses=[BMT151208361.2 BBT17693034.1.0 BBT17693034.0.2],Conns=[wye wye wye],kvs=[7.967 0.12 0.12],kvas=[15.000000000 15.000000000 15.000000000],Taps=[1,1.000000000,1.000000000],%loadloss=1.600000000,%noloadloss=0.400000000
new transformer.1079290 Phases=1,Windings=3,Buses=[BMT150353584.2 BBT17697444.1.0 BBT17697444.0.2],Conns=[wye wye wye],kvs=[7.967 0.12 0.12],kvas=[5.000000000 5.000000000 5.000000000],Taps=[1,1.000000000,1.000000000],%loadloss=1.900000000,%noloadloss=0.600000000
new transformer.1079584 Phases=1,Windings=3,Buses=[BMT150353680.2 BBT17797173.1.0 BBT17797173.0.2],Conns=[wye wye wye],kvs=[7.967 0.12 0.12],kvas=[5.000000000 5.000000000 5.000000000],Taps=[1,1.000000000,1.000000000],%loadloss=1.900000000,%noloadloss=0.600000000
new transformer.1079591 Phases=1,Windings=3,Buses=[BMT150353681.2 BBT17798223.1.0 BBT17798223.0.2],Conns=[wye wye wye],kvs=[7.967 0.12 0.12],kvas=[5.000000000 5.000000000 5.000000000],Taps=[1,1.000000000,1.000000000],%loadloss=1.900000000,%noloadloss=0.600000000
new transformer.1090616 Phases=1,Windings=3,Buses=[BMT102838794.1 BBT21114592.1.0 BBT21114592.0.2],Conns=[wye wye wye],kvs=[7.967 0.12 0.12],kvas=[35.000000000 35.000000000 35.000000000],Taps=[1,1.000000000,1.000000000],%loadloss=1.293000000,%noloadloss=0.342857000
new transformer.1091071 Phases=1,Windings=3,Buses=[BMT120823005.3 BBT21198151.1.0 BBT21198151.0.2],Conns=[wye wye wye],kvs=[7.967 0.12 0.12],kvas=[5.000000000 5.000000000 5.000000000],Taps=[1,1.000000000,1.000000000],%loadloss=1.900000000,%noloadloss=0.600000000
new transformer.1091113 Phases=1,Windings=3,Buses=[BMT166960749.3 BBT21204073.1.0 BBT21204073.0.2],Conns=[wye wye wye],kvs=[7.967 0.12 0.12],kvas=[5.000000000 5.000000000 5.000000000],Taps=[1,1.000000000,1.000000000],%loadloss=1.900000000,%noloadloss=0.600000000
new transformer.1091638 Phases=1,Windings=3,Buses=[BMT168708453.2 BBT21274829.1.0 BBT21274829.0.2],Conns=[wye wye wye],kvs=[7.967 0.12 0.12],kvas=[10.000000000 10.000000000 10.000000000],Taps=[1,1.000000000,1.000000000],%loadloss=1.800000000,%noloadloss=0.450000000
new transformer.1119764 Phases=1,Windings=3,Buses=[BMT172861140.2 BBT27132310.1.0 BBT27132310.0.2],Conns=[wye wye wye],kvs=[7.967 0.12 0.12],kvas=[5.000000000 5.000000000 5.000000000],Taps=[1,1.000000000,1.000000000],%loadloss=1.900000000,%noloadloss=0.600000000
new transformer.1158936 Phases=1,Windings=3,Buses=[BMT169560676.2 BBT34565582.1.0 BBT34565582.0.2],Conns=[wye wye wye],kvs=[7.967 0.12 0.12],kvas=[15.000000000 15.000000000 15.000000000],Taps=[1,1.000000000,1.000000000],%loadloss=1.600000000,%noloadloss=0.400000000
new transformer.1159727 Phases=1,Windings=3,Buses=[BMT102838682.1 BBT34718294.1.0 BBT34718294.0.2],Conns=[wye wye wye],kvs=[7.967 0.12 0.12],kvas=[10.000000000 10.000000000 10.000000000],Taps=[1,1.000000000,1.000000000],%loadloss=1.800000000,%noloadloss=0.450000000
new transformer.1202693 Phases=1,Windings=3,Buses=[BMT169524871.1 BBT42645955.1.0 BBT42645955.0.2],Conns=[wye wye wye],kvs=[7.967 0.12 0.12],kvas=[5.000000000 5.000000000 5.000000000],Taps=[1,1.000000000,1.000000000],%loadloss=1.900000000,%noloadloss=0.600000000
new transformer.1250202 Phases=1,Windings=3,Buses=[BMT160010754.2 BBT60281671.1.0 BBT60281671.0.2],Conns=[wye wye wye],kvs=[7.967 0.12 0.12],kvas=[5.000000000 5.000000000 5.000000000],Taps=[1,1.000000000,1.000000000],%loadloss=1.900000000,%noloadloss=0.600000000
new transformer.1250895 Phases=1,Windings=3,Buses=[BMT170101279.2 BBT60475424.1.0 BBT60475424.0.2],Conns=[wye wye wye],kvs=[7.967 0.12 0.12],kvas=[5.000000000 5.000000000 5.000000000],Taps=[1,1.000000000,1.000000000],%loadloss=1.900000000,%noloadloss=0.600000000
new transformer.1298586 Phases=1,Windings=3,Buses=[BMT163806553.2 BBT81520637.1.0 BBT81520637.0.2],Conns=[wye wye wye],kvs=[7.967 0.12 0.12],kvas=[5.000000000 5.000000000 5.000000000],Taps=[1,1.000000000,1.000000000],%loadloss=1.900000000,%noloadloss=0.600000000
new transformer.1298670 Phases=1,Windings=3,Buses=[BMT168608126.1 BBT81524844.1.0 BBT81524844.0.2],Conns=[wye wye wye],kvs=[7.967 0.12 0.12],kvas=[5.000000000 5.000000000 5.000000000],Taps=[1,1.000000000,1.000000000],%loadloss=1.900000000,%noloadloss=0.600000000
new transformer.1298915 Phases=1,Windings=3,Buses=[BMT150353937.2 BBT81553866.1.0 BBT81553866.0.2],Conns=[wye wye wye],kvs=[7.967 0.12 0.12],kvas=[5.000000000 5.000000000 5.000000000],Taps=[1,1.000000000,1.000000000],%loadloss=1.900000000,%noloadloss=0.600000000
new transformer.1300119 Phases=1,Windings=3,Buses=[BMT166967067.2 BBT84550258.1.0 BBT84550258.0.2],Conns=[wye wye wye],kvs=[7.967 0.12 0.12],kvas=[5.000000000 5.000000000 5.000000000],Taps=[1,1.000000000,1.000000000],%loadloss=1.900000000,%noloadloss=0.600000000
new transformer.132301 Phases=1,Windings=3,Buses=[BMT158325925.2 BBT1181370.1.0 BBT1181370.0.2],Conns=[wye wye wye],kvs=[7.967 0.12 0.12],kvas=[10.000000000 10.000000000 10.000000000],Taps=[1,1.000000000,1.000000000],%loadloss=1.800000000,%noloadloss=0.450000000
new transformer.132308 Phases=1,Windings=3,Buses=[BMT164979875.3 BBT1181384.1.0 BBT1181384.0.2],Conns=[wye wye wye],kvs=[7.967 0.12 0.12],kvas=[25.000000000 25.000000000 25.000000000],Taps=[1,1.000000000,1.000000000],%loadloss=1.420000000,%noloadloss=0.320000000
new transformer.132315 Phases=1,Windings=3,Buses=[BMT150354265.3 BBT1181426.1.0 BBT1181426.0.2],Conns=[wye wye wye],kvs=[7.967 0.12 0.12],kvas=[10.000000000 10.000000000 10.000000000],Taps=[1,1.000000000,1.000000000],%loadloss=1.800000000,%noloadloss=0.450000000
new transformer.132322 Phases=1,Windings=3,Buses=[BMT150353193.3 BBT1181440.1.0 BBT1181440.0.2],Conns=[wye wye wye],kvs=[7.967 0.12 0.12],kvas=[5.000000000 5.000000000 5.000000000],Taps=[1,1.000000000,1.000000000],%loadloss=1.900000000,%noloadloss=0.600000000
new transformer.132336 Phases=1,Windings=3,Buses=[BMT164979870.3 BBT1181468.1.0 BBT1181468.0.2],Conns=[wye wye wye],kvs=[7.967 0.12 0.12],kvas=[15.000000000 15.000000000 15.000000000],Taps=[1,1.000000000,1.000000000],%loadloss=1.600000000,%noloadloss=0.400000000
new transformer.1112981 Phases=1,Windings=3,Buses=[BMT166080909.1 BBT25741382.1.0 BBT25741382.0.2],Conns=[wye wye wye],kvs=[7.967 0.12 0.12],kvas=[10.000000000 10.000000000 10.000000000],Taps=[1,1.000000000,1.000000000],%loadloss=1.800000000,%noloadloss=0.450000000
new transformer.131993 Phases=3,Windings=2,Buses=[BMT150354217.1.2.3 BBT1179445.1.2.3.0],Conns=[delta wye],kvs=[13.8 0.22],kvas=[75.000000000 75.000000000],Taps=[1,1.000000000],%loadloss=1.340000000,%noloadloss=0.340000000
new transformer.132000 Phases=3,Windings=2,Buses=[BMT170227521.1.2.3 BBT1179550.1.2.3.0],Conns=[delta wye],kvs=[13.8 0.22],kvas=[45.000000000 45.000000000],Taps=[1,1.000000000],%loadloss=1.522000000,%noloadloss=0.377777000
new transformer.132007 Phases=1,Windings=3,Buses=[BMT170227519.2 BBT1179641.1.0 BBT1179641.0.2],Conns=[wye wye wye],kvs=[7.967 0.12 0.12],kvas=[10.000000000 10.000000000 10.000000000],Taps=[1,1.000000000,1.000000000],%loadloss=1.800000000,%noloadloss=0.450000000
new transformer.132014 Phases=1,Windings=3,Buses=[BMT150353196.3 BBT1179753.1.0 BBT1179753.0.2],Conns=[wye wye wye],kvs=[7.967 0.12 0.12],kvas=[5.000000000 5.000000000 5.000000000],Taps=[1,1.000000000,1.000000000],%loadloss=1.900000000,%noloadloss=0.600000000
new transformer.132021 Phases=3,Windings=2,Buses=[BMT168297714.1.2.3 BBT1179767.1.2.3.0],Conns=[delta wye],kvs=[13.8 0.22],kvas=[30.000000000 30.000000000],Taps=[1,1.000000000],%loadloss=1.667000000,%noloadloss=0.433333000
new transformer.132028 Phases=1,Windings=3,Buses=[BMT103775240.1 BBT1179781.1.0 BBT1179781.0.2],Conns=[wye wye wye],kvs=[7.967 0.12 0.12],kvas=[10.000000000 10.000000000 10.000000000],Taps=[1,1.000000000,1.000000000],%loadloss=1.800000000,%noloadloss=0.450000000
new transformer.1320517 Phases=1,Windings=3,Buses=[BMT170631388.1 BBT93687561.1.0 BBT93687561.0.2],Conns=[wye wye wye],kvs=[7.967 0.12 0.12],kvas=[5.000000000 5.000000000 5.000000000],Taps=[1,1.000000000,1.000000000],%loadloss=1.900000000,%noloadloss=0.600000000
new transformer.132056 Phases=1,Windings=3,Buses=[BMT103774309.2 BBT1179879.1.0 BBT1179879.0.2],Conns=[wye wye wye],kvs=[7.967 0.12 0.12],kvas=[15.000000000 15.000000000 15.000000000],Taps=[1,1.000000000,1.000000000],%loadloss=1.600000000,%noloadloss=0.400000000
new transformer.132063 Phases=1,Windings=3,Buses=[BMT171152948.2 BBT1179893.1.0 BBT1179893.0.2],Conns=[wye wye wye],kvs=[7.967 0.12 0.12],kvas=[15.000000000 15.000000000 15.000000000],Taps=[1,1.000000000,1.000000000],%loadloss=1.600000000,%noloadloss=0.400000000
new transformer.132070 Phases=3,Windings=2,Buses=[BMT160805673.1.2.3 BBT1179970.1.2.3.0],Conns=[delta wye],kvs=[13.8 0.22],kvas=[30.000000000 30.000000000],Taps=[1,1.000000000],%loadloss=1.667000000,%noloadloss=0.433333000
new transformer.132077 Phases=1,Windings=3,Buses=[BMT163760118.2 BBT1180047.1.0 BBT1180047.0.2],Conns=[wye wye wye],kvs=[7.967 0.12 0.12],kvas=[15.000000000 15.000000000 15.000000000],Taps=[1,1.000000000,1.000000000],%loadloss=1.600000000,%noloadloss=0.400000000
new transformer.132084 Phases=3,Windings=2,Buses=[BMT167649848.1.2.3 BBT1180061.1.2.3.0],Conns=[delta wye],kvs=[13.8 0.22],kvas=[45.000000000 45.000000000],Taps=[1,1.000000000],%loadloss=1.522000000,%noloadloss=0.377777000
new transformer.132091 Phases=3,Windings=2,Buses=[BMT160809057.1.2.3 BBT1180096.1.2.3.0],Conns=[delta wye],kvs=[13.8 0.22],kvas=[75.000000000 75.000000000],Taps=[1,1.000000000],%loadloss=1.340000000,%noloadloss=0.340000000
new transformer.132105 Phases=1,Windings=3,Buses=[BMT164292656.2 BBT1180243.1.0 BBT1180243.0.2],Conns=[wye wye wye],kvs=[7.967 0.12 0.12],kvas=[10.000000000 10.000000000 10.000000000],Taps=[1,1.000000000,1.000000000],%loadloss=1.800000000,%noloadloss=0.450000000
new transformer.132119 Phases=1,Windings=3,Buses=[BMT103766868.1 BBT1180313.1.0 BBT1180313.0.2],Conns=[wye wye wye],kvs=[7.967 0.12 0.12],kvas=[15.000000000 15.000000000 15.000000000],Taps=[1,1.000000000,1.000000000],%loadloss=1.600000000,%noloadloss=0.400000000
new transformer.132126 Phases=3,Windings=2,Buses=[BMT165160305.1.2.3 BBT1180355.1.2.3.0],Conns=[delta wye],kvs=[13.8 0.22],kvas=[30.000000000 30.000000000],Taps=[1,1.000000000],%loadloss=1.667000000,%noloadloss=0.433333000
new transformer.132133 Phases=3,Windings=2,Buses=[BMT171152950.1.2.3 BBT1180439.1.2.3.0],Conns=[delta wye],kvs=[13.8 0.22],kvas=[75.000000000 75.000000000],Taps=[1,1.000000000],%loadloss=1.340000000,%noloadloss=0.340000000
new transformer.132154 Phases=3,Windings=2,Buses=[BMT165160302.1.2.3 BBT1180558.1.2.3.0],Conns=[delta wye],kvs=[13.8 0.22],kvas=[30.000000000 30.000000000],Taps=[1,1.000000000],%loadloss=1.667000000,%noloadloss=0.433333000
new transformer.132168 Phases=1,Windings=3,Buses=[BMT103774106.3 BBT1180642.1.0 BBT1180642.0.2],Conns=[wye wye wye],kvs=[7.967 0.12 0.12],kvas=[10.000000000 10.000000000 10.000000000],Taps=[1,1.000000000,1.000000000],%loadloss=1.800000000,%noloadloss=0.450000000
new transformer.132175 Phases=3,Windings=2,Buses=[BMT169407284.1.2.3 BBT1180719.1.2.3.0],Conns=[delta wye],kvs=[13.8 0.22],kvas=[75.000000000 75.000000000],Taps=[1,1.000000000],%loadloss=1.340000000,%noloadloss=0.340000000
new transformer.132182 Phases=1,Windings=3,Buses=[BMT160135054.3 BBT1180817.1.0 BBT1180817.0.2],Conns=[wye wye wye],kvs=[7.967 0.12 0.12],kvas=[10.000000000 10.000000000 10.000000000],Taps=[1,1.000000000,1.000000000],%loadloss=1.800000000,%noloadloss=0.450000000
new transformer.132189 Phases=1,Windings=3,Buses=[BMT150354022.2 BBT1180831.1.0 BBT1180831.0.2],Conns=[wye wye wye],kvs=[7.967 0.12 0.12],kvas=[10.000000000 10.000000000 10.000000000],Taps=[1,1.000000000,1.000000000],%loadloss=1.800000000,%noloadloss=0.450000000
new transformer.132196 Phases=1,Windings=3,Buses=[BMT170533471.2 BBT1180845.1.0 BBT1180845.0.2],Conns=[wye wye wye],kvs=[7.967 0.12 0.12],kvas=[15.000000000 15.000000000 15.000000000],Taps=[1,1.000000000,1.000000000],%loadloss=1.600000000,%noloadloss=0.400000000
new transformer.132203 Phases=1,Windings=3,Buses=[BMT173104521.2 BBT1180887.1.0 BBT1180887.0.2],Conns=[wye wye wye],kvs=[7.967 0.12 0.12],kvas=[10.000000000 10.000000000 10.000000000],Taps=[1,1.000000000,1.000000000],%loadloss=1.800000000,%noloadloss=0.450000000
new transformer.132210 Phases=1,Windings=3,Buses=[BMT150353128.3 BBT1180901.1.0 BBT1180901.0.2],Conns=[wye wye wye],kvs=[7.967 0.12 0.12],kvas=[10.000000000 10.000000000 10.000000000],Taps=[1,1.000000000,1.000000000],%loadloss=1.800000000,%noloadloss=0.450000000
new transformer.132224 Phases=1,Windings=3,Buses=[BMT170227518.3 BBT1180929.1.0 BBT1180929.0.2],Conns=[wye wye wye],kvs=[7.967 0.12 0.12],kvas=[10.000000000 10.000000000 10.000000000],Taps=[1,1.000000000,1.000000000],%loadloss=1.800000000,%noloadloss=0.450000000
new transformer.132231 Phases=1,Windings=3,Buses=[BMT150353130.3 BBT1181048.1.0 BBT1181048.0.2],Conns=[wye wye wye],kvs=[7.967 0.12 0.12],kvas=[15.000000000 15.000000000 15.000000000],Taps=[1,1.000000000,1.000000000],%loadloss=1.600000000,%noloadloss=0.400000000
new transformer.1068916 Phases=1,Windings=3,Buses=[BMT168251496.3 BBT14797988.1.0 BBT14797988.0.2],Conns=[wye wye wye],kvs=[7.967 0.12 0.12],kvas=[5.000000000 5.000000000 5.000000000],Taps=[1,1.000000000,1.000000000],%loadloss=1.900000000,%noloadloss=0.600000000
new transformer.1069434 Phases=1,Windings=3,Buses=[BMT168251557.3 BBT15006084.1.0 BBT15006084.0.2],Conns=[wye wye wye],kvs=[7.967 0.12 0.12],kvas=[5.000000000 5.000000000 5.000000000],Taps=[1,1.000000000,1.000000000],%loadloss=1.900000000,%noloadloss=0.600000000
new transformer.1069441 Phases=1,Windings=3,Buses=[BMT168251556.3 BBT15006959.1.0 BBT15006959.0.2],Conns=[wye wye wye],kvs=[7.967 0.12 0.12],kvas=[5.000000000 5.000000000 5.000000000],Taps=[1,1.000000000,1.000000000],%loadloss=1.900000000,%noloadloss=0.600000000
new transformer.1069798 Phases=1,Windings=3,Buses=[BMT170101275.2 BBT15183989.1.0 BBT15183989.0.2],Conns=[wye wye wye],kvs=[7.967 0.12 0.12],kvas=[5.000000000 5.000000000 5.000000000],Taps=[1,1.000000000,1.000000000],%loadloss=1.900000000,%noloadloss=0.600000000
new transformer.1069980 Phases=1,Windings=3,Buses=[BMT156193075.1 BBT15223980.1.0 BBT15223980.0.2],Conns=[wye wye wye],kvs=[7.967 0.12 0.12],kvas=[5.000000000 5.000000000 5.000000000],Taps=[1,1.000000000,1.000000000],%loadloss=1.900000000,%noloadloss=0.600000000
new transformer.1164788 Phases=1,Windings=3,Buses=[BMT171973341.2 BBT35486698.1.0 BBT35486698.0.2],Conns=[wye wye wye],kvs=[7.967 0.12 0.12],kvas=[5.000000000 5.000000000 5.000000000],Taps=[1,1.000000000,1.000000000],%loadloss=1.900000000,%noloadloss=0.600000000
new transformer.1238351 Phases=1,Windings=3,Buses=[BMT168608461.1 BBT55923884.1.0 BBT55923884.0.2],Conns=[wye wye wye],kvs=[7.967 0.12 0.12],kvas=[10.000000000 10.000000000 10.000000000],Taps=[1,1.000000000,1.000000000],%loadloss=1.800000000,%noloadloss=0.450000000
new transformer.1314182 Phases=3,Windings=2,Buses=[BMT151761823.1.2.3 BBT90952731.1.2.3.0],Conns=[delta wye],kvs=[13.8 0.22],kvas=[45.000000000 45.000000000],Taps=[1,1.000000000],%loadloss=1.522000000,%noloadloss=0.377777000
new transformer.1341741 Phases=1,Windings=3,Buses=[BMT152139286.1 BBT109279851.1.0 BBT109279851.0.2],Conns=[wye wye wye],kvs=[7.967 0.12 0.12],kvas=[5.000000000 5.000000000 5.000000000],Taps=[1,1.000000000,1.000000000],%loadloss=1.900000000,%noloadloss=0.600000000
new transformer.1341874 Phases=3,Windings=2,Buses=[BMT150353493.1.2.3 BBT109321928.1.2.3.0],Conns=[delta wye],kvs=[13.8 0.22],kvas=[45.000000000 45.000000000],Taps=[1,1.000000000],%loadloss=1.522000000,%noloadloss=0.377777000
new transformer.1365765 Phases=1,Windings=3,Buses=[BMT166967052.2 BBT128078554.1.0 BBT128078554.0.2],Conns=[wye wye wye],kvs=[7.967 0.12 0.12],kvas=[5.000000000 5.000000000 5.000000000],Taps=[1,1.000000000,1.000000000],%loadloss=1.900000000,%noloadloss=0.600000000
new transformer.1366052 Phases=1,Windings=3,Buses=[BMT166967009.2 BBT128325815.1.0 BBT128325815.0.2],Conns=[wye wye wye],kvs=[7.967 0.12 0.12],kvas=[5.000000000 5.000000000 5.000000000],Taps=[1,1.000000000,1.000000000],%loadloss=1.900000000,%noloadloss=0.600000000
new transformer.1366059 Phases=1,Windings=3,Buses=[BMT166967011.2 BBT128327775.1.0 BBT128327775.0.2],Conns=[wye wye wye],kvs=[7.967 0.12 0.12],kvas=[5.000000000 5.000000000 5.000000000],Taps=[1,1.000000000,1.000000000],%loadloss=1.900000000,%noloadloss=0.600000000
new transformer.1380346 Phases=1,Windings=3,Buses=[BMT164372864.3 BBT137016616.1.0 BBT137016616.0.2],Conns=[wye wye wye],kvs=[7.967 0.12 0.12],kvas=[10.000000000 10.000000000 10.000000000],Taps=[1,1.000000000,1.000000000],%loadloss=1.800000000,%noloadloss=0.450000000
new transformer.1380353 Phases=1,Windings=3,Buses=[BMT164372865.3 BBT137017820.1.0 BBT137017820.0.2],Conns=[wye wye wye],kvs=[7.967 0.12 0.12],kvas=[10.000000000 10.000000000 10.000000000],Taps=[1,1.000000000,1.000000000],%loadloss=1.800000000,%noloadloss=0.450000000
new transformer.1382285 Phases=1,Windings=3,Buses=[BMT171110655.3 BBT137538697.1.0 BBT137538697.0.2],Conns=[wye wye wye],kvs=[7.967 0.12 0.12],kvas=[10.000000000 10.000000000 10.000000000],Taps=[1,1.000000000,1.000000000],%loadloss=1.800000000,%noloadloss=0.450000000
new transformer.1382880 Phases=1,Windings=3,Buses=[BMT168608127.1 BBT137706788.1.0 BBT137706788.0.2],Conns=[wye wye wye],kvs=[7.967 0.12 0.12],kvas=[15.000000000 15.000000000 15.000000000],Taps=[1,1.000000000,1.000000000],%loadloss=1.600000000,%noloadloss=0.400000000
new transformer.1394741 Phases=1,Windings=3,Buses=[BMT169650379.1 BBT149146901.1.0 BBT149146901.0.2],Conns=[wye wye wye],kvs=[7.967 0.12 0.12],kvas=[5.000000000 5.000000000 5.000000000],Taps=[1,1.000000000,1.000000000],%loadloss=1.900000000,%noloadloss=0.600000000
new transformer.1394743 Phases=1,Windings=3,Buses=[BMT169650378.1 BBT149147248.1.0 BBT149147248.0.2],Conns=[wye wye wye],kvs=[7.967 0.12 0.12],kvas=[5.000000000 5.000000000 5.000000000],Taps=[1,1.000000000,1.000000000],%loadloss=1.900000000,%noloadloss=0.600000000
new transformer.1394745 Phases=1,Windings=3,Buses=[BMT149149836.1 BBT149147447.1.0 BBT149147447.0.2],Conns=[wye wye wye],kvs=[7.967 0.12 0.12],kvas=[5.000000000 5.000000000 5.000000000],Taps=[1,1.000000000,1.000000000],%loadloss=1.900000000,%noloadloss=0.600000000
new transformer.1394751 Phases=1,Windings=3,Buses=[BMT149149838.1 BBT149149445.1.0 BBT149149445.0.2],Conns=[wye wye wye],kvs=[7.967 0.12 0.12],kvas=[5.000000000 5.000000000 5.000000000],Taps=[1,1.000000000,1.000000000],%loadloss=1.900000000,%noloadloss=0.600000000
new transformer.1394754 Phases=1,Windings=3,Buses=[BMT149149839.1 BBT149149857.1.0 BBT149149857.0.2],Conns=[wye wye wye],kvs=[7.967 0.12 0.12],kvas=[10.000000000 10.000000000 10.000000000],Taps=[1,1.000000000,1.000000000],%loadloss=1.800000000,%noloadloss=0.450000000
new transformer.1410063 Phases=1,Windings=3,Buses=[BMT168011175.2 BBT152843078.1.0 BBT152843078.0.2],Conns=[wye wye wye],kvs=[7.967 0.12 0.12],kvas=[25.000000000 25.000000000 25.000000000],Taps=[1,1.000000000,1.000000000],%loadloss=1.420000000,%noloadloss=0.320000000
new transformer.1413647 Phases=1,Windings=3,Buses=[BMT162975174.1 BBT153555688.1.0 BBT153555688.0.2],Conns=[wye wye wye],kvs=[7.967 0.12 0.12],kvas=[10.000000000 10.000000000 10.000000000],Taps=[1,1.000000000,1.000000000],%loadloss=1.800000000,%noloadloss=0.450000000
new transformer.1416881 Phases=1,Windings=3,Buses=[BMT164881167.1 BBT154373276.1.0 BBT154373276.0.2],Conns=[wye wye wye],kvs=[7.967 0.12 0.12],kvas=[10.000000000 10.000000000 10.000000000],Taps=[1,1.000000000,1.000000000],%loadloss=1.800000000,%noloadloss=0.450000000
new transformer.1430856 Phases=1,Windings=3,Buses=[BMT157407662.3 BBT157396550.1.0 BBT157396550.0.2],Conns=[wye wye wye],kvs=[7.967 0.12 0.12],kvas=[10.000000000 10.000000000 10.000000000],Taps=[1,1.000000000,1.000000000],%loadloss=1.800000000,%noloadloss=0.450000000
new transformer.1431139 Phases=3,Windings=2,Buses=[BMT157466632.1.2.3 BBT157466588.1.2.3.0],Conns=[delta wye],kvs=[13.8 0.22],kvas=[75.000000000 75.000000000],Taps=[1,1.000000000],%loadloss=1.340000000,%noloadloss=0.340000000
new transformer.1208328 Phases=3,Windings=2,Buses=[BMT170471165.1.2.3 BBT45280090.1.2.3.0],Conns=[delta wye],kvs=[13.8 0.22],kvas=[45.000000000 45.000000000],Taps=[1,1.000000000],%loadloss=1.522000000,%noloadloss=0.377777000
new transformer.1208335 Phases=1,Windings=3,Buses=[BMT170471166.1 BBT45280160.1.0 BBT45280160.0.2],Conns=[wye wye wye],kvs=[7.967 0.12 0.12],kvas=[10.000000000 10.000000000 10.000000000],Taps=[1,1.000000000,1.000000000],%loadloss=1.800000000,%noloadloss=0.450000000
new transformer.1348748 Phases=1,Windings=3,Buses=[BMT163267208.3 BBT114182728.1.0 BBT114182728.0.2],Conns=[wye wye wye],kvs=[7.967 0.12 0.12],kvas=[5.000000000 5.000000000 5.000000000],Taps=[1,1.000000000,1.000000000],%loadloss=1.900000000,%noloadloss=0.600000000