new line.CTR12377 bus1=BMT103771194.2,bus2=BMT166967062.2,Phases=1,LineCode=tieSwitch1,Length=0.001,Units=km,switch=T !numEQ 143097
new line.CTR139084 bus1=BMT103773462.1.2.3,bus2=BMT171152942.1.2.3,Phases=3,LineCode=tieSwitch,Length=0.001,Units=km,switch=T !numEQ 90658
new line.CTR139112 bus1=BMT103801784.1.2.3,bus2=BMT103801791.1.2.3,Phases=3,LineCode=tieSwitch,Length=0.001,Units=km,switch=T !numEQ 8075
new line.CTR139196 bus1=BMT103801889.1,bus2=BMT172688268.1,Phases=1,LineCode=tieSwitch1,Length=0.001,Units=km,switch=T !numEQ 8062
new line.CTR139301 bus1=BMT150354103.1.2.3,bus2=BMT165293144.1.2.3,Phases=3,LineCode=tieSwitch,Length=0.001,Units=km,switch=T !numEQ 263484
new line.CTR139329 bus1=BMT150354113.1,bus2=BMT150354132.1,Phases=1,LineCode=tieSwitch1,Length=0.001,Units=km,switch=T !numEQ 9765
new line.CTR139371 bus1=BMT150353251.1.2.3,bus2=BMT150353252.1.2.3,Phases=3,LineCode=tieSwitch,Length=0.001,Units=km,switch=T !numEQ 9096
new line.CTR139399 bus1=BMT150353280.1,bus2=BMT168593419.1,Phases=1,LineCode=tieSwitch1,Length=0.001,Units=km,switch=T !numEQ 90023
new line.CTR139427 bus1=BMT150353724.2,bus2=BMT163806539.2,Phases=1,LineCode=tieSwitch1,Length=0.001,Units=km,switch=T !numEQ 381668
new line.CTR139455 bus1=BMT150353596.1.2.3,bus2=BMT150353647.1.2.3,Phases=3,LineCode=tieSwitch,Length=0.001,Units=km,switch=T !numEQ 288867
new line.CTR139511 bus1=BMT157601113.1.2.3,bus2=BMT160806713.1.2.3,Phases=3,LineCode=tieSwitch,Length=0.001,Units=km,switch=T !numEQ 90053
new line.CTR139525 bus1=BMT150353383.1,bus2=BMT162017693.1,Phases=1,LineCode=tieSwitch1,Length=0.001,Units=km,switch=T !numEQ 8246
new line.CTR139581 bus1=BMT150353328.2,bus2=BMT158325915.2,Phases=1,LineCode=tieSwitch1,Length=0.001,Units=km,switch=T !numEQ 10121
new line.CTR139665 bus1=BMT150353321.1.2.3,bus2=BMT150353322.1.2.3,Phases=3,LineCode=tieSwitch,Length=0.001,Units=km,switch=T !numEQ 11030
new line.CTR178382 bus1=BMT103802036.1.2.3,bus2=BMT103802463.1.2.3,Phases=3,LineCode=tieSwitch,Length=0.001,Units=km,switch=T !numEQ 8074
new line.CTR178998 bus1=BMT150353201.3,bus2=BMT150353214.3,Phases=1,LineCode=tieSwitch1,Length=0.001,Units=km,switch=T !numEQ 139823
new line.CTR185256 bus1=BMT103772811.2,bus2=BMT166967103.2,Phases=1,LineCode=tieSwitch1,Length=0.001,Units=km,switch=T !numEQ 143095
new line.CTR185270 bus1=BMT150353594.1,bus2=BMT162975172.1,Phases=1,LineCode=tieSwitch1,Length=0.001,Units=km,switch=T !numEQ 143099
new line.CTR185963 bus1=BMT167598049.3,bus2=BMT167828602.3,Phases=1,LineCode=tieSwitch1,Length=0.001,Units=km,switch=T !numEQ 141217
new line.CTR193404 bus1=BMT150354172.1.2.3,bus2=BMT168168703.1.2.3,Phases=3,LineCode=tieSwitch,Length=0.001,Units=km,switch=T !numEQ 113940
new line.CTR223917 bus1=BMT150353330.1.2.3,bus2=BMT150353374.1.2.3,Phases=3,LineCode=tieSwitch,Length=0.001,Units=km,switch=T !numEQ 111880
new line.CTR246800 bus1=BMT102837100.1.2.3,bus2=BMT158752814.1.2.3,Phases=3,LineCode=tieSwitch,Length=0.001,Units=km,switch=T !numEQ 108136
new line.CTR247458 bus1=BMT103773840.1.2.3,bus2=BMT163760102.1.2.3,Phases=3,LineCode=tieSwitch,Length=0.001,Units=km,switch=T !numEQ 8804
new line.CTR247472 bus1=BMT103773973.2,bus2=BMT103774302.2,Phases=1,LineCode=tieSwitch1,Length=0.001,Units=km,switch=T !numEQ 11019
new line.CTR247486 bus1=BMT103774253.2,bus2=BMT103774274.2,Phases=1,LineCode=tieSwitch1,Length=0.001,Units=km,switch=T !numEQ 90467
new line.CTR247493 bus1=BMT103775128.1,bus2=BMT103775142.1,Phases=1,LineCode=tieSwitch1,Length=0.001,Units=km,switch=T !numEQ 9435
new line.CTR247591 bus1=BMT103769059.1.2.3,bus2=BMT167070833.1.2.3,Phases=3,LineCode=tieSwitch,Length=0.001,Units=km,switch=T !numEQ 285381
new line.CTR247619 bus1=BMT103769318.1,bus2=BMT164979608.1,Phases=1,LineCode=tieSwitch1,Length=0.001,Units=km,switch=T !numEQ 285410
new line.CTR247640 bus1=BMT103769577.1,bus2=BMT167817856.1,Phases=1,LineCode=tieSwitch1,Length=0.001,Units=km,switch=T !numEQ 376721
new line.CTR247654 bus1=BMT166342937.1.2.3,bus2=BMT166341351.1.2.3,Phases=3,LineCode=tieSwitch,Length=0.001,Units=km,switch=T !numEQ 7331
new line.CTR247682 bus1=BMT103769710.3,bus2=BMT166960647.3,Phases=1,LineCode=tieSwitch1,Length=0.001,Units=km,switch=T !numEQ 13549
new line.CTR247696 bus1=BMT103774386.1,bus2=BMT103775597.1,Phases=1,LineCode=tieSwitch1,Length=0.001,Units=km,switch=T !numEQ 7594
new line.CTR247710 bus1=BMT103766959.1.2.3,bus2=BMT103773427.1.2.3,Phases=3,LineCode=tieSwitch,Length=0.001,Units=km,switch=T !numEQ 90041
new line.CTR247724 bus1=BMT103767043.1.2.3,bus2=BMT99448617.1.2.3,Phases=3,LineCode=tieSwitch,Length=0.001,Units=km,switch=T !numEQ 194242
open line.CTR247724 term=1
new line.CTR247752 bus1=BMT103767057.1.2.3,bus2=BMT103773399.1.2.3,Phases=3,LineCode=tieSwitch,Length=0.001,Units=km,switch=T !numEQ 8876
new line.CTR247759 bus1=BMT103767071.1.2.3,bus2=BMT103767078.1.2.3,Phases=3,LineCode=tieSwitch,Length=0.001,Units=km,switch=T !numEQ 1613
new line.CTR247773 bus1=BMT103766987.1.2.3,bus2=BMT103767001.1.2.3,Phases=3,LineCode=tieSwitch,Length=0.001,Units=km,switch=T !numEQ 3596
new line.CTR247801 bus1=BMT103767274.3,bus2=BMT103773161.3,Phases=1,LineCode=tieSwitch1,Length=0.001,Units=km,switch=T !numEQ 90342
new line.CTR247815 bus1=BMT103767288.2,bus2=BMT103773133.2,Phases=1,LineCode=tieSwitch1,Length=0.001,Units=km,switch=T !numEQ 90340
new line.CTR247843 bus1=BMT103767652.1.2.3,bus2=BMT167612571.1.2.3,Phases=3,LineCode=tieSwitch,Length=0.001,Units=km,switch=T !numEQ 257106
new line.CTR259813 bus1=BMT103802120.3,bus2=BMT171110605.3,Phases=1,LineCode=tieSwitch1,Length=0.001,Units=km,switch=T !numEQ 112600
new line.CTR268248 bus1=BMT103774442.1,bus2=BMT120249747.1,Phases=1,LineCode=tieSwitch1,Length=0.001,Units=km,switch=T !numEQ 151077
new line.CTR282227 bus1=BMT103801924.3,bus2=BMT103801945.3,Phases=1,LineCode=tieSwitch1,Length=0.001,Units=km,switch=T !numEQ 8064
new line.CTR282486 bus1=BMT150354137.1.2.3,bus2=BMT150354139.1.2.3,Phases=3,LineCode=tieSwitch,Length=0.001,Units=km,switch=T !numEQ 13550
new line.CTR282619 bus1=BMT102838563.1,bus2=BMT102838864.1,Phases=1,LineCode=tieSwitch1,Length=0.001,Units=km,switch=T !numEQ 9367
new line.CTR137915 bus1=BMT99456422.3,bus2=BMT163710180.3,Phases=1,LineCode=tieSwitch1,Length=0.001,Units=km,switch=T !numEQ 11043
new line.CTR168554 bus1=BMT103801112.1.2.3,bus2=BMT103801119.1.2.3,Phases=3,LineCode=tieSwitch,Length=0.001,Units=km,switch=T !numEQ 9502
new line.CTR168869 bus1=BMT166967041.2,bus2=BMT103771145.2,Phases=1,LineCode=tieSwitch1,Length=0.001,Units=km,switch=T !numEQ 11004
new line.CTR187517 bus1=BMT150353432.3,bus2=BMT150353439.3,Phases=1,LineCode=tieSwitch1,Length=0.001,Units=km,switch=T !numEQ 147727
new line.CTR196000474 bus1=BMT2196000505.1.2.3,bus2=BMT2196000493.1.2.3,Phases=3,LineCode=tieSwitch,Length=0.001,Units=km,switch=T !numEQ 
new line.CTR196000502 bus1=BMT2180535611.1.2.3,bus2=BMT2196000505.1.2.3,Phases=3,LineCode=tieSwitch,Length=0.001,Units=km,switch=T !numEQ 
new line.CTR196000520 bus1=BMT2195999950.1.2.3,bus2=BMT2180535611.1.2.3,Phases=3,LineCode=tieSwitch,Length=0.001,Units=km,switch=T !numEQ 
new line.CTR196000564 bus1=BMT2180535613.1.2.3,bus2=BMT2196000565.1.2.3,Phases=3,LineCode=tieSwitch,Length=0.001,Units=km,switch=T !numEQ 
new line.CTR196000578 bus1=BMT2195999950.1.2.3,bus2=BMT2180535613.1.2.3,Phases=3,LineCode=tieSwitch,Length=0.001,Units=km,switch=T !numEQ 
new line.CTR196000604 bus1=BMT2180535615.1.2.3,bus2=BMT2196000605.1.2.3,Phases=3,LineCode=tieSwitch,Length=0.001,Units=km,switch=T !numEQ 
new line.CTR196000618 bus1=BMT2195999950.1.2.3,bus2=BMT2180535615.1.2.3,Phases=3,LineCode=tieSwitch,Length=0.001,Units=km,switch=T !numEQ 
new line.CTR196000644 bus1=BMT2180535616.1.2.3,bus2=BMT2196000645.1.2.3,Phases=3,LineCode=tieSwitch,Length=0.001,Units=km,switch=T !numEQ 
new line.CTR196000658 bus1=BMT2195999950.1.2.3,bus2=BMT2180535616.1.2.3,Phases=3,LineCode=tieSwitch,Length=0.001,Units=km,switch=T !numEQ 
new line.CTR196000684 bus1=BMT2196000685.1.2.3,bus2=BMT2180535614.1.2.3,Phases=3,LineCode=tieSwitch,Length=0.001,Units=km,switch=T !numEQ 
new line.CTR196000698 bus1=BMT2180535614.1.2.3,bus2=BMT2195999950.1.2.3,Phases=3,LineCode=tieSwitch,Length=0.001,Units=km,switch=T !numEQ 
new line.CTR196000710 bus1=BMT2196000565.1.2.3,bus2=BMT2196000711.1.2.3,Phases=3,LineCode=tieSwitch,Length=0.001,Units=km,switch=T !numEQ 
new line.CTR196000722 bus1=BMT2196000605.1.2.3,bus2=BMT2196000723.1.2.3,Phases=3,LineCode=tieSwitch,Length=0.001,Units=km,switch=T !numEQ 
new line.CTR196000734 bus1=BMT2196000645.1.2.3,bus2=BMT2196000735.1.2.3,Phases=3,LineCode=tieSwitch,Length=0.001,Units=km,switch=T !numEQ 
new line.CTR196000746 bus1=BMT2196000747.1.2.3,bus2=BMT2196000685.1.2.3,Phases=3,LineCode=tieSwitch,Length=0.001,Units=km,switch=T !numEQ 
new line.CTR196218 bus1=BMT150353393.1.2.3,bus2=BMT150353417.1.2.3,Phases=3,LineCode=tieSwitch,Length=0.001,Units=km,switch=T !numEQ 149804
new line.CTR221271 bus1=BMT103775429.1,bus2=BMT103775492.1,Phases=1,LineCode=tieSwitch1,Length=0.001,Units=km,switch=T !numEQ 90824
new line.CTR242299 bus1=BMT150353302.1.2.3,bus2=BMT150353309.1.2.3,Phases=3,LineCode=tieSwitch,Length=0.001,Units=km,switch=T !numEQ 8762
new line.CTR242313 bus1=BMT151623155.1.2.3,bus2=BMT150353188.1.2.3,Phases=3,LineCode=tieSwitch,Length=0.001,Units=km,switch=T !numEQ 9094
new line.CTR242327 bus1=BMT150353168.1.2.3,bus2=BMT165945465.1.2.3,Phases=3,LineCode=tieSwitch,Length=0.001,Units=km,switch=T !numEQ 7500
new line.CTR242341 bus1=BMT150354116.1.2.3,bus2=BMT150354122.1.2.3,Phases=3,LineCode=tieSwitch,Length=0.001,Units=km,switch=T !numEQ 90502
new line.CTR242411 bus1=BMT150353282.1.2.3,bus2=BMT150353283.1.2.3,Phases=3,LineCode=tieSwitch,Length=0.001,Units=km,switch=T !numEQ 9415
new line.CTR242453 bus1=BMT150353464.1.2.3,bus2=BMT165988409.1.2.3,Phases=3,LineCode=tieSwitch,Length=0.001,Units=km,switch=T !numEQ 90301
new line.CTR242467 bus1=BMT150353336.2,bus2=BMT150353453.2,Phases=1,LineCode=tieSwitch1,Length=0.001,Units=km,switch=T !numEQ 90671
new line.CTR242509 bus1=BMT150353957.1.2.3,bus2=BMT165160301.1.2.3,Phases=3,LineCode=tieSwitch,Length=0.001,Units=km,switch=T !numEQ 402382
new line.CTR242523 bus1=BMT150354015.2,bus2=BMT150354021.2,Phases=1,LineCode=tieSwitch1,Length=0.001,Units=km,switch=T !numEQ 90758
new line.CTR242537 bus1=BMT150353947.2,bus2=BMT158128681.2,Phases=1,LineCode=tieSwitch1,Length=0.001,Units=km,switch=T !numEQ 8774
new line.CTR242551 bus1=BMT150353260.1.2.3,bus2=BMT150353264.1.2.3,Phases=3,LineCode=tieSwitch,Length=0.001,Units=km,switch=T !numEQ 90765
new line.CTR242593 bus1=BMT150353509.1.2.3,bus2=BMT150353510.1.2.3,Phases=3,LineCode=tieSwitch,Length=0.001,Units=km,switch=T !numEQ 288186
new line.CTR242607 bus1=BMT150353516.2,bus2=BMT150353931.2,Phases=1,LineCode=tieSwitch1,Length=0.001,Units=km,switch=T !numEQ 288184
new line.CTR242677 bus1=BMT150354250.3,bus2=BMT150354251.3,Phases=1,LineCode=tieSwitch1,Length=0.001,Units=km,switch=T !numEQ 10083
new line.CTR242705 bus1=BMT150353140.1.2.3,bus2=BMT167729838.1.2.3,Phases=3,LineCode=tieSwitch,Length=0.001,Units=km,switch=T !numEQ 8889
new line.CTR242733 bus1=BMT150354186.2.3,bus2=BMT150354194.2.3,Phases=2,LineCode=tieSwitch,Length=0.001,Units=km,switch=T !numEQ 7516
new line.CTR263425 bus1=BMT150353801.3,bus2=BMT168251531.3,Phases=1,LineCode=tieSwitch1,Length=0.001,Units=km,switch=T !numEQ 125274
new line.CTR263859 bus1=BMT102838556.1,bus2=BMT102838934.1,Phases=1,LineCode=tieSwitch1,Length=0.001,Units=km,switch=T !numEQ 143119
new line.CTR288744 bus1=BMT167471377.1.2.3,bus2=BMT171185159.1.2.3,Phases=3,LineCode=tieSwitch,Length=0.001,Units=km,switch=T !numEQ 125510
new line.CTR28967 bus1=BMT168657433.1.2.3,bus2=BMT169449429.1.2.3,Phases=3,LineCode=tieSwitch,Length=0.001,Units=km,switch=T !numEQ 384407
new line.CTR289759 bus1=BMT103800804.1,bus2=BMT157318055.1,Phases=1,LineCode=tieSwitch1,Length=0.001,Units=km,switch=T !numEQ 90664
new line.CTR364463 bus1=BMT150353909.1.2.3,bus2=BMT160807386.1.2.3,Phases=3,LineCode=tieSwitch,Length=0.001,Units=km,switch=T !numEQ 10305
new line.CTR365723 bus1=BMT168168710.1.2.3,bus2=BMT150354043.1.2.3,Phases=3,LineCode=tieSwitch,Length=0.001,Units=km,switch=T !numEQ 7000
open line.CTR365723 term=1
new line.CTR365737 bus1=BMT150353102.1.2.3,bus2=BMT166852467.1.2.3,Phases=3,LineCode=tieSwitch,Length=0.001,Units=km,switch=T !numEQ 8881
new line.CTR41399 bus1=BMT103800769.1.2.3,bus2=BMT168011173.1.2.3,Phases=3,LineCode=tieSwitch,Length=0.001,Units=km,switch=T !numEQ 197161
new line.CTR514781 bus1=BMT103772153.2,bus2=BMT168708437.2,Phases=1,LineCode=tieSwitch1,Length=0.001,Units=km,switch=T !numEQ 9081
new line.CTR561695 bus1=BMT170533470.1,bus2=BMT170533573.1,Phases=1,LineCode=tieSwitch1,Length=0.001,Units=km,switch=T !numEQ 143098
new line.CTR561975 bus1=BMT99456429.1.2.3,bus2=BMT162980499.1.2.3,Phases=3,LineCode=tieSwitch,Length=0.001,Units=km,switch=T !numEQ 10049
new line.CTR562003 bus1=BMT99456639.1,bus2=BMT99456646.1,Phases=1,LineCode=tieSwitch1,Length=0.001,Units=km,switch=T !numEQ 90569
new line.CTR135115 bus1=BMT157033034.1.2.3,bus2=BMT3988923.1.2.3,Phases=3,LineCode=tieSwitch,Length=0.001,Units=km,switch=T !numEQ 90777
open line.CTR135115 term=1
new line.CTR135199 bus1=BMT103767841.1.2.3,bus2=BMT165299413.1.2.3,Phases=3,LineCode=tieSwitch,Length=0.001,Units=km,switch=T !numEQ 292784
new line.CTR135241 bus1=BMT163853450.1,bus2=BMT163853826.1,Phases=1,LineCode=tieSwitch1,Length=0.001,Units=km,switch=T !numEQ 285382
new line.CTR135304 bus1=BMT103766973.3,bus2=BMT103773413.3,Phases=1,LineCode=tieSwitch1,Length=0.001,Units=km,switch=T !numEQ 90343
new line.CTR135332 bus1=BMT103766945.1.2.3,bus2=BMT103773448.1.2.3,Phases=3,LineCode=tieSwitch,Length=0.001,Units=km,switch=T !numEQ 90040
new line.CTR14169 bus1=BMT103769598.3,bus2=BMT166960624.3,Phases=1,LineCode=tieSwitch1,Length=0.001,Units=km,switch=T !numEQ 146329
new line.CTR142416 bus1=BMT103768688.1.2.3,bus2=BMT125812864.1.2.3,Phases=3,LineCode=tieSwitch,Length=0.001,Units=km,switch=T !numEQ 285380
new line.CTR173951 bus1=BMT103802498.1,bus2=BMT167357132.1,Phases=1,LineCode=tieSwitch1,Length=0.001,Units=km,switch=T !numEQ 8117
new line.CTR181021 bus1=BMT150354170.1.2.3,bus2=BMT150354211.1.2.3,Phases=3,LineCode=tieSwitch,Length=0.001,Units=km,switch=T !numEQ 4212
new line.CTR181224 bus1=BMT103773987.3,bus2=BMT157407660.3,Phases=1,LineCode=tieSwitch1,Length=0.001,Units=km,switch=T !numEQ 381677
new line.CTR189883 bus1=BMT150353262.1.2.3,bus2=BMT165564373.1.2.3,Phases=3,LineCode=tieSwitch,Length=0.001,Units=km,switch=T !numEQ 150138
new line.CTR207649 bus1=BMT150353347.1.2.3,bus2=BMT157691017.1.2.3,Phases=3,LineCode=tieSwitch,Length=0.001,Units=km,switch=T !numEQ 8235
new line.CTR207775 bus1=BMT103801098.1.2.3,bus2=BMT103801105.1.2.3,Phases=3,LineCode=tieSwitch,Length=0.001,Units=km,switch=T !numEQ 9504
new line.CTR208685 bus1=BMT103801322.3,bus2=BMT163708658.3,Phases=1,LineCode=tieSwitch1,Length=0.001,Units=km,switch=T !numEQ 8116
new line.CTR244175 bus1=BMT102837296.2,bus2=BMT171579781.2,Phases=1,LineCode=tieSwitch1,Length=0.001,Units=km,switch=T !numEQ 3518
new line.CTR244553 bus1=BMT102841629.1.2.3,bus2=BMT102841650.1.2.3,Phases=3,LineCode=tieSwitch,Length=0.001,Units=km,switch=T !numEQ 8174
new line.CTR271307 bus1=BMT103768877.3,bus2=BMT120822956.3,Phases=1,LineCode=tieSwitch1,Length=0.001,Units=km,switch=T !numEQ 143118
new line.CTR271468 bus1=BMT103803268.3,bus2=BMT138697190.3,Phases=1,LineCode=tieSwitch1,Length=0.001,Units=km,switch=T !numEQ 308058
new line.CTR271517 bus1=BMT103773826.1.2.3,bus2=BMT103774330.1.2.3,Phases=3,LineCode=tieSwitch,Length=0.001,Units=km,switch=T !numEQ 8033
new line.CTR283515 bus1=BMT150353615.3,bus2=BMT150353644.3,Phases=1,LineCode=tieSwitch1,Length=0.001,Units=km,switch=T !numEQ 288860
new line.CTR283991 bus1=BMT150354059.1.2.3,bus2=BMT162998013.1.2.3,Phases=3,LineCode=tieSwitch,Length=0.001,Units=km,switch=T !numEQ 7010
new line.CTR300154 bus1=BMT150354174.1.2.3,bus2=BMT154562372.1.2.3,Phases=3,LineCode=tieSwitch,Length=0.001,Units=km,switch=T !numEQ 10159
new line.CTR300581 bus1=BMT102838108.1,bus2=BMT102838458.1,Phases=1,LineCode=tieSwitch1,Length=0.001,Units=km,switch=T !numEQ 7675
new line.CTR300868 bus1=BMT103801623.1.2.3,bus2=BMT162492281.1.2.3,Phases=3,LineCode=tieSwitch,Length=0.001,Units=km,switch=T !numEQ 14337
new line.CTR315715 bus1=BMT150353376.1.2.3,bus2=BMT150353377.1.2.3,Phases=3,LineCode=tieSwitch,Length=0.001,Units=km,switch=T !numEQ 111881
new line.CTR316870 bus1=BMT103800867.1.2.3,bus2=BMT103800881.1.2.3,Phases=3,LineCode=tieSwitch,Length=0.001,Units=km,switch=T !numEQ 112103
new line.CTR332109 bus1=BMT102837303.1.2.3,bus2=BMT152846988.1.2.3,Phases=3,LineCode=tieSwitch,Length=0.001,Units=km,switch=T !numEQ 9028
new line.CTR347187 bus1=BMT103801812.3,bus2=BMT103802666.3,Phases=1,LineCode=tieSwitch1,Length=0.001,Units=km,switch=T !numEQ 14339
new line.CTR361831 bus1=BMT150353246.1.2.3,bus2=BMT150353247.1.2.3,Phases=3,LineCode=tieSwitch,Length=0.001,Units=km,switch=T !numEQ 7265
new line.CTR361943 bus1=BMT149089314.1.2.3,bus2=BMT103801007.1.2.3,Phases=3,LineCode=tieSwitch,Length=0.001,Units=km,switch=T !numEQ 106198
new line.CTR362678 bus1=BMT167329155.1.2.3,bus2=BMT167827706.1.2.3,Phases=3,LineCode=tieSwitch,Length=0.001,Units=km,switch=T !numEQ 149108
new line.CTR363301 bus1=BMT102837912.1,bus2=BMT160446331.1,Phases=1,LineCode=tieSwitch1,Length=0.001,Units=km,switch=T !numEQ 137685
new line.CTR363483 bus1=BMT103767834.1.2.3,bus2=BMT170161901.1.2.3,Phases=3,LineCode=tieSwitch,Length=0.001,Units=km,switch=T !numEQ 257103
new line.CTR499843 bus1=BMT103768394.1.2.3,bus2=BMT103768590.1.2.3,Phases=3,LineCode=tieSwitch,Length=0.001,Units=km,switch=T !numEQ 202329
new line.CTR501453 bus1=BMT99456849.1.2.3,bus2=BMT99456856.1.2.3,Phases=3,LineCode=tieSwitch,Length=0.001,Units=km,switch=T !numEQ 197159
new line.CTR501460 bus1=BMT103766875.1.2.3,bus2=BMT103773749.1.2.3,Phases=3,LineCode=tieSwitch,Length=0.001,Units=km,switch=T !numEQ 199722
new line.CTR501467 bus1=BMT138322333.1.2.3,bus2=BMT16387065.1.2.3,Phases=3,LineCode=tieSwitch,Length=0.001,Units=km,switch=T !numEQ 199723
open line.CTR501467 term=1
new line.CTR501474 bus1=BMT99456884.1.2.3,bus2=BMT138322312.1.2.3,Phases=3,LineCode=tieSwitch,Length=0.001,Units=km,switch=T !numEQ 199724
new line.CTR524735 bus1=BMT103769073.1,bus2=BMT153122450.1,Phases=1,LineCode=tieSwitch1,Length=0.001,Units=km,switch=T !numEQ 149518
new line.CTR524763 bus1=BMT150353281.1.2.3,bus2=BMT150353498.1.2.3,Phases=3,LineCode=tieSwitch,Length=0.001,Units=km,switch=T !numEQ 149519
new line.CTR555409 bus1=BMT150353671.2,bus2=BMT150353675.2,Phases=1,LineCode=tieSwitch1,Length=0.001,Units=km,switch=T !numEQ 101100
new line.CTR603408 bus1=BMT168239148.1.2.3,bus2=BMT168239157.1.2.3,Phases=3,LineCode=tieSwitch,Length=0.001,Units=km,switch=T !numEQ 276431
new line.CTR60369 bus1=BMT103801042.3,bus2=BMT171143564.3,Phases=1,LineCode=tieSwitch1,Length=0.001,Units=km,switch=T !numEQ 377295
new line.CTR60579 bus1=BMT99457087.1.2.3,bus2=BMT99457122.1.2.3,Phases=3,LineCode=tieSwitch,Length=0.001,Units=km,switch=T !numEQ 112528
new line.CTR627824 bus1=BMT102838717.1,bus2=BMT102838731.1,Phases=1,LineCode=tieSwitch1,Length=0.001,Units=km,switch=T !numEQ 91020
new line.CTR107045 bus1=BMT157033032.1.2.3,bus2=BMT3988839.1.2.3,Phases=3,LineCode=tieSwitch,Length=0.001,Units=km,switch=T !numEQ 90775
open line.CTR107045 term=1
new line.CTR14127 bus1=BMT103775219.1,bus2=BMT103775289.1,Phases=1,LineCode=tieSwitch1,Length=0.001,Units=km,switch=T !numEQ 147685
new line.CTR16031 bus1=BMT170631591.1.2.3,bus2=BMT103771950.1.2.3,Phases=3,LineCode=tieSwitch,Length=0.001,Units=km,switch=T !numEQ 226322
new line.CTR175911 bus1=BMT103767435.1.2.3,bus2=BMT103767512.1.2.3,Phases=3,LineCode=tieSwitch,Length=0.001,Units=km,switch=T !numEQ 147821
new line.CTR182904 bus1=BMT150353185.3,bus2=BMT160135052.3,Phases=1,LineCode=tieSwitch1,Length=0.001,Units=km,switch=T !numEQ 10464
new line.CTR183254 bus1=BMT103769815.3,bus2=BMT166960756.3,Phases=1,LineCode=tieSwitch1,Length=0.001,Units=km,switch=T !numEQ 11014
new line.CTR196659 bus1=BMT161048165.3,bus2=BMT167137959.3,Phases=1,LineCode=tieSwitch1,Length=0.001,Units=km,switch=T !numEQ 148314
new line.CTR196764 bus1=BMT150353714.2,bus2=BMT150353842.2,Phases=1,LineCode=tieSwitch1,Length=0.001,Units=km,switch=T !numEQ 381666
new line.CTR206193 bus1=BMT151208325.3,bus2=BMT163267202.3,Phases=1,LineCode=tieSwitch1,Length=0.001,Units=km,switch=T !numEQ 164091
new line.CTR207285 bus1=BMT103768184.1.2.3,bus2=BMT150342322.1.2.3,Phases=3,LineCode=tieSwitch,Length=0.001,Units=km,switch=T !numEQ 10345
new line.CTR25299 bus1=BMT150353100.1.2.3,bus2=BMT150353101.1.2.3,Phases=3,LineCode=tieSwitch,Length=0.001,Units=km,switch=T !numEQ 8781
open line.CTR25299 term=1
new line.CTR274660 bus1=BMT103772139.2,bus2=BMT168708492.2,Phases=1,LineCode=tieSwitch1,Length=0.001,Units=km,switch=T !numEQ 9032
new line.CTR297753 bus1=BMT150354076.1,bus2=BMT150354078.1,Phases=1,LineCode=tieSwitch1,Length=0.001,Units=km,switch=T !numEQ 3579
new line.CTR317850 bus1=BMT103766910.1.2.3,bus2=BMT156554233.1.2.3,Phases=3,LineCode=tieSwitch,Length=0.001,Units=km,switch=T !numEQ 3657
new line.CTR317878 bus1=BMT103768163.1.2.3,bus2=BMT152709451.1.2.3,Phases=3,LineCode=tieSwitch,Length=0.001,Units=km,switch=T !numEQ 8836
new line.CTR317906 bus1=BMT159480972.1.2.3,bus2=BMT159481537.1.2.3,Phases=3,LineCode=tieSwitch,Length=0.001,Units=km,switch=T !numEQ 90831
new line.CTR317934 bus1=BMT103767295.1.2.3,bus2=BMT171411366.1.2.3,Phases=3,LineCode=tieSwitch,Length=0.001,Units=km,switch=T !numEQ 90518
new line.CTR317976 bus1=BMT103769612.2,bus2=BMT170101221.2,Phases=1,LineCode=tieSwitch1,Length=0.001,Units=km,switch=T !numEQ 276278
new line.CTR317990 bus1=BMT103769689.3,bus2=BMT166960637.3,Phases=1,LineCode=tieSwitch1,Length=0.001,Units=km,switch=T !numEQ 9657
new line.CTR318004 bus1=BMT168138218.3,bus2=BMT103769703.3,Phases=1,LineCode=tieSwitch1,Length=0.001,Units=km,switch=T !numEQ 9611
new line.CTR318088 bus1=BMT103767246.1.2.3,bus2=BMT152710022.1.2.3,Phases=3,LineCode=tieSwitch,Length=0.001,Units=km,switch=T !numEQ 12381
new line.CTR318648 bus1=BMT162998019.1.2.3,bus2=BMT162998020.1.2.3,Phases=3,LineCode=tieSwitch,Length=0.001,Units=km,switch=T !numEQ 14341
new line.CTR318928 bus1=BMT150353299.1.2.3,bus2=BMT152139281.1.2.3,Phases=3,LineCode=tieSwitch,Length=0.001,Units=km,switch=T !numEQ 8848
new line.CTR335630 bus1=BMT103801777.3,bus2=BMT103802722.3,Phases=1,LineCode=tieSwitch1,Length=0.001,Units=km,switch=T !numEQ 90651
new line.CTR336204 bus1=BMT103770879.2,bus2=BMT166967020.2,Phases=1,LineCode=tieSwitch1,Length=0.001,Units=km,switch=T !numEQ 147626
new line.CTR336554 bus1=BMT150353152.1.2.3,bus2=BMT150354165.1.2.3,Phases=3,LineCode=tieSwitch,Length=0.001,Units=km,switch=T !numEQ 130139
new line.CTR369832 bus1=BMT150353985.1,bus2=BMT164637662.1,Phases=1,LineCode=tieSwitch1,Length=0.001,Units=km,switch=T !numEQ 146332
new line.CTR370147 bus1=BMT103803149.3,bus2=BMT103803170.3,Phases=1,LineCode=tieSwitch1,Length=0.001,Units=km,switch=T !numEQ 146330
new line.CTR496686 bus1=BMT103771313.2,bus2=BMT168836071.2,Phases=1,LineCode=tieSwitch1,Length=0.001,Units=km,switch=T !numEQ 197477
new line.CTR497337 bus1=BMT160755411.1.2.3,bus2=BMT16997682.1.2.3,Phases=3,LineCode=tieSwitch,Length=0.001,Units=km,switch=T !numEQ 199740
open line.CTR497337 term=1
new line.CTR520297 bus1=BMT150354064.1,bus2=BMT150354143.1,Phases=1,LineCode=tieSwitch1,Length=0.001,Units=km,switch=T !numEQ 151338
new line.CTR522579 bus1=BMT102837009.1.2.3,bus2=BMT173046759.1.2.3,Phases=3,LineCode=tieSwitch,Length=0.001,Units=km,switch=T !numEQ 7370
new line.CTR54825 bus1=BMT102837226.1,bus2=BMT170481729.1,Phases=1,LineCode=tieSwitch1,Length=0.001,Units=km,switch=T !numEQ 90994
new line.CTR550915 bus1=BMT103767106.2,bus2=BMT103767113.2,Phases=1,LineCode=tieSwitch1,Length=0.001,Units=km,switch=T !numEQ 6884
new line.CTR596156 bus1=BMT103801154.1.2.3,bus2=BMT103801161.1.2.3,Phases=3,LineCode=tieSwitch,Length=0.001,Units=km,switch=T !numEQ 131681
new line.CTR618822 bus1=BMT103767099.1.2.3,bus2=BMT173158189.1.2.3,Phases=3,LineCode=tieSwitch,Length=0.001,Units=km,switch=T !numEQ 9131
new line.CTR641362 bus1=BMT103800713.1.2.3,bus2=BMT157033030.1.2.3,Phases=3,LineCode=tieSwitch,Length=0.001,Units=km,switch=T !numEQ 90772
new line.CTR641460 bus1=BMT103802043.3,bus2=BMT166360145.3,Phases=1,LineCode=tieSwitch1,Length=0.001,Units=km,switch=T !numEQ 8072
new line.CTR641488 bus1=BMT103802778.3,bus2=BMT163731195.3,Phases=1,LineCode=tieSwitch1,Length=0.001,Units=km,switch=T !numEQ 90583
new line.CTR641516 bus1=BMT103803604.3,bus2=BMT167348919.3,Phases=1,LineCode=tieSwitch1,Length=0.001,Units=km,switch=T !numEQ 90505
new line.CTR641558 bus1=BMT150353240.1.2.3,bus2=BMT150353244.1.2.3,Phases=3,LineCode=tieSwitch,Length=0.001,Units=km,switch=T !numEQ 9095
new line.CTR641586 bus1=BMT150353249.1.2.3,bus2=BMT150353941.1.2.3,Phases=3,LineCode=tieSwitch,Length=0.001,Units=km,switch=T !numEQ 7259
new line.CTR641614 bus1=BMT150353946.2,bus2=BMT163712435.2,Phases=1,LineCode=tieSwitch1,Length=0.001,Units=km,switch=T !numEQ 8769
new line.CTR641642 bus1=BMT150353953.1.2.3,bus2=BMT152182161.1.2.3,Phases=3,LineCode=tieSwitch,Length=0.001,Units=km,switch=T !numEQ 9346
new line.CTR641824 bus1=BMT150353301.1.2.3,bus2=BMT168297712.1.2.3,Phases=3,LineCode=tieSwitch,Length=0.001,Units=km,switch=T !numEQ 8768
new line.CTR112491 bus1=BMT103772244.2,bus2=BMT168708449.2,Phases=1,LineCode=tieSwitch1,Length=0.001,Units=km,switch=T !numEQ 90227
new line.CTR118875 bus1=BMT103773924.1.2.3,bus2=BMT172959876.1.2.3,Phases=3,LineCode=tieSwitch,Length=0.001,Units=km,switch=T !numEQ 137653
new line.CTR179117 bus1=BMT103767449.1.2.3,bus2=BMT103773119.1.2.3,Phases=3,LineCode=tieSwitch,Length=0.001,Units=km,switch=T !numEQ 143832
new line.CTR193789 bus1=BMT150353312.1.2.3,bus2=BMT150353318.1.2.3,Phases=3,LineCode=tieSwitch,Length=0.001,Units=km,switch=T !numEQ 11029
new line.CTR193803 bus1=BMT150353300.1.2.3,bus2=BMT150353303.1.2.3,Phases=3,LineCode=tieSwitch,Length=0.001,Units=km,switch=T !numEQ 8255
new line.CTR193817 bus1=BMT150353296.1.2.3,bus2=BMT150353494.1.2.3,Phases=3,LineCode=tieSwitch,Length=0.001,Units=km,switch=T !numEQ 141431
new line.CTR199256 bus1=BMT171159551.1.2.3,bus2=BMT103767568.1.2.3,Phases=3,LineCode=tieSwitch,Length=0.001,Units=km,switch=T !numEQ 285376
new line.CTR199802 bus1=BMT150353963.2,bus2=BMT164292655.2,Phases=1,LineCode=tieSwitch1,Length=0.001,Units=km,switch=T !numEQ 151395
new line.CTR210575 bus1=BMT103801903.3,bus2=BMT103802582.3,Phases=1,LineCode=tieSwitch1,Length=0.001,Units=km,switch=T !numEQ 8063
new line.CTR210659 bus1=BMT150353692.3,bus2=BMT169383839.3,Phases=1,LineCode=tieSwitch1,Length=0.001,Units=km,switch=T !numEQ 290401
new line.CTR230406 bus1=BMT102838584.1,bus2=BMT102838829.1,Phases=1,LineCode=tieSwitch1,Length=0.001,Units=km,switch=T !numEQ 9475
new line.CTR231176 bus1=BMT150353764.2,bus2=BMT160703337.2,Phases=1,LineCode=tieSwitch1,Length=0.001,Units=km,switch=T !numEQ 107217
new line.CTR242747 bus1=BMT150353154.1.2.3,bus2=BMT172328734.1.2.3,Phases=3,LineCode=tieSwitch,Length=0.001,Units=km,switch=T !numEQ 6989
new line.CTR242761 bus1=BMT150353163.1.2.3,bus2=BMT150354039.1.2.3,Phases=3,LineCode=tieSwitch,Length=0.001,Units=km,switch=T !numEQ 6990
new line.CTR242775 bus1=BMT150354048.1.2.3,bus2=BMT150354156.1.2.3,Phases=3,LineCode=tieSwitch,Length=0.001,Units=km,switch=T !numEQ 90322
new line.CTR242789 bus1=BMT150354049.1.2.3,bus2=BMT150354153.1.2.3,Phases=3,LineCode=tieSwitch,Length=0.001,Units=km,switch=T !numEQ 90321
new line.CTR242803 bus1=BMT150354052.1.2.3,bus2=BMT150354147.1.2.3,Phases=3,LineCode=tieSwitch,Length=0.001,Units=km,switch=T !numEQ 7002
new line.CTR242810 bus1=BMT103801581.1.2.3,bus2=BMT135184681.1.2.3,Phases=3,LineCode=tieSwitch,Length=0.001,Units=km,switch=T !numEQ 8034
new line.CTR242824 bus1=BMT103801616.3,bus2=BMT103803142.3,Phases=1,LineCode=tieSwitch1,Length=0.001,Units=km,switch=T !numEQ 8035
new line.CTR242838 bus1=BMT103801644.3,bus2=BMT103803051.3,Phases=1,LineCode=tieSwitch1,Length=0.001,Units=km,switch=T !numEQ 8673
new line.CTR242852 bus1=BMT103801665.1,bus2=BMT103801693.1,Phases=1,LineCode=tieSwitch1,Length=0.001,Units=km,switch=T !numEQ 8047
new line.CTR242866 bus1=BMT103801735.2,bus2=BMT103803037.2,Phases=1,LineCode=tieSwitch1,Length=0.001,Units=km,switch=T !numEQ 8052
new line.CTR242880 bus1=BMT103801882.3,bus2=BMT173098280.3,Phases=1,LineCode=tieSwitch1,Length=0.001,Units=km,switch=T !numEQ 324470
new line.CTR242922 bus1=BMT103801980.3,bus2=BMT103802568.3,Phases=1,LineCode=tieSwitch1,Length=0.001,Units=km,switch=T !numEQ 8066
new line.CTR242943 bus1=BMT103801994.1,bus2=BMT103802477.1,Phases=1,LineCode=tieSwitch1,Length=0.001,Units=km,switch=T !numEQ 8071
new line.CTR243055 bus1=BMT99448316.1.2.3,bus2=BMT156673453.1.2.3,Phases=3,LineCode=tieSwitch,Length=0.001,Units=km,switch=T !numEQ 90773
new line.CTR243069 bus1=BMT99456870.1.2.3,bus2=BMT99456877.1.2.3,Phases=3,LineCode=tieSwitch,Length=0.001,Units=km,switch=T !numEQ 197160
open line.CTR243069 term=1
new line.CTR243622 bus1=BMT102838612.1,bus2=BMT102838619.1,Phases=1,LineCode=tieSwitch1,Length=0.001,Units=km,switch=T !numEQ 9368
new line.CTR254472 bus1=BMT103774358.1.2.3,bus2=BMT103774365.1.2.3,Phases=3,LineCode=tieSwitch,Length=0.001,Units=km,switch=T !numEQ 10354
new line.CTR265959 bus1=BMT103767064.1.2.3,bus2=BMT103773385.1.2.3,Phases=3,LineCode=tieSwitch,Length=0.001,Units=km,switch=T !numEQ 8854
new line.CTR265973 bus1=BMT103767029.1.2.3,bus2=BMT103767050.1.2.3,Phases=3,LineCode=tieSwitch,Length=0.001,Units=km,switch=T !numEQ 90043
new line.CTR277369 bus1=BMT103773266.1,bus2=BMT103773308.1,Phases=1,LineCode=tieSwitch1,Length=0.001,Units=km,switch=T !numEQ 137498
new line.CTR323135 bus1=BMT150353762.2,bus2=BMT150353776.2,Phases=1,LineCode=tieSwitch1,Length=0.001,Units=km,switch=T !numEQ 110342
new line.CTR339935 bus1=BMT103801931.1.2.3,bus2=BMT103801938.1.2.3,Phases=3,LineCode=tieSwitch,Length=0.001,Units=km,switch=T !numEQ 8065