new line.11313086 bus1=BBT3389163.1.2.0,bus2=BBT3389170.1.2.0,Phases=2,Linecode=BT519_BT519_7_2_1,Length=0.000501000,Units=km
new line.11313149 bus1=BBT3389177.1.2.0,bus2=BBT3389184.1.2.0,Phases=2,Linecode=BT513_BT513_7_2_1,Length=0.000501000,Units=km
new line.11313261 bus1=BBT864837.1.2.0,bus2=BBT3389212.1.2.0,Phases=2,Linecode=BT519_BT519_7_2_1,Length=0.000501000,Units=km
new line.11313296 bus1=BBT3389219.1.2.0,bus2=BBT3389226.1.2.0,Phases=2,Linecode=BT517_BT517_7_2_1,Length=0.000501000,Units=km
new line.11315802 bus1=BBT3389709.1.2.3.0,bus2=BBT3389716.1.2.3.0,Phases=3,Linecode=BT513_BT513_7_3_1,Length=0.000501000,Units=km
new line.11337775 bus1=BBT3396121.1.2.0,bus2=BBT3396128.1.2.0,Phases=2,Linecode=BT505_BT505_7_2_1,Length=0.000501000,Units=km
new line.11601696 bus1=BBT3484132.1.2.0,bus2=BBT3484139.1.2.0,Phases=2,Linecode=BT507_BT507_7_2_1,Length=0.000501000,Units=km
new line.11602242 bus1=BBT3484447.1.2.0,bus2=BBT3484454.1.2.0,Phases=2,Linecode=BT507_BT507_7_2_1,Length=0.000501000,Units=km
new line.11613470 bus1=BBT3488269.1.2.0,bus2=BBT3488276.1.2.0,Phases=2,Linecode=BT505_BT505_7_2_1,Length=0.000501000,Units=km
new line.11634176 bus1=BBT3497621.1.2.0,bus2=BBT3497628.1.2.0,Phases=2,Linecode=BT810_BT810_4_2_4,Length=0.043332000,Units=km
new line.11636990 bus1=BBT3498552.1.2.0,bus2=BBT4118353.1.2.0,Phases=2,Linecode=BT808_BT808_4_2_3,Length=0.030534000,Units=km
new line.12045615 bus1=BBT847232.1.2.3.0,bus2=BBT847246.1.2.3.0,Phases=3,Linecode=BT803_BT803_4_3_4,Length=0.025500000,Units=km
new line.12045692 bus1=BBT3641520.1.2.3.0,bus2=BBT844474.1.2.3.0,Phases=3,Linecode=BT803_BT803_4_3_4,Length=0.021193000,Units=km
new line.12046007 bus1=BBT3641590.1.2.0,bus2=BBT856556.1.2.0,Phases=2,Linecode=BT106_BT106_7_2_1,Length=0.031390000,Units=km
new line.12046014 bus1=BBT3641590.1.2.0,bus2=BBT856542.1.2.0,Phases=2,Linecode=BT106_BT106_7_2_1,Length=0.007282000,Units=km
new line.12046021 bus1=BBT3641590.1.2.0,bus2=BBT856549.1.2.0,Phases=2,Linecode=BT106_BT106_7_2_1,Length=0.006326000,Units=km
new line.12046049 bus1=BBT3641597.1.2.3.0,bus2=BBT856633.1.2.3.0,Phases=3,Linecode=BT106_BT106_7_3_1,Length=0.005387000,Units=km
new line.12046056 bus1=BBT3641597.1.2.3.0,bus2=BBT856647.1.2.3.0,Phases=3,Linecode=BT108_BT107_7_3_1,Length=0.027736000,Units=km
new line.12046063 bus1=BBT3641597.1.2.3.0,bus2=BBT856661.1.2.3.0,Phases=3,Linecode=BT106_BT106_7_3_1,Length=0.029160000,Units=km
new line.12048100 bus1=BBT3642192.1.2.0,bus2=BBT3642199.1.2.0,Phases=2,Linecode=BT505_BT505_7_2_1,Length=0.000501000,Units=km
new line.12049717 bus1=BBT3642745.1.2.0,bus2=BBT840540.1.2.0,Phases=2,Linecode=BT107_BT108_7_2_1,Length=0.027171000,Units=km
new line.12063486 bus1=BBT3645538.1.2.0,bus2=BBT842346.1.2.0,Phases=2,Linecode=BT505_BT505_5_2_1,Length=0.015527000,Units=km
new line.12063493 bus1=BBT3645538.1.2.0,bus2=BBT842374.1.2.0,Phases=2,Linecode=BT505_BT505_5_2_1,Length=0.013419000,Units=km
new line.12064865 bus1=BBT3645888.1.2.3.0,bus2=BBT847869.1.2.3.0,Phases=3,Linecode=BT803_BT803_4_3_4,Length=0.033021000,Units=km
new line.12067847 bus1=BBT3646742.1.2.0,bus2=BBT833043.1.2.0,Phases=2,Linecode=BT108_BT108_7_2_1,Length=0.037583000,Units=km
new line.12070395 bus1=BBT3647323.1.2.0,bus2=BBT3647330.1.2.0,Phases=2,Linecode=BT304_BT304_7_2_1,Length=0.000501000,Units=km
new line.12070458 bus1=BBT3647337.1.2.0,bus2=BBT3647344.1.2.0,Phases=2,Linecode=BT304_BT304_7_2_1,Length=0.000501000,Units=km
new line.12071207 bus1=BBT3647428.1.2.0,bus2=BBT3647435.1.2.0,Phases=2,Linecode=BT505_BT505_7_2_1,Length=0.000501000,Units=km
new line.12072439 bus1=BBT3647701.1.2.0,bus2=BBT3647708.1.2.0,Phases=2,Linecode=BT517_BT517_7_2_1,Length=0.000501000,Units=km
new line.12078718 bus1=BBT4298561.1.2.0,bus2=BBT4298568.1.2.0,Phases=2,Linecode=BT808_BT808_4_2_3,Length=0.025637000,Units=km
new line.12079194 bus1=BBT3650256.1.2.0,bus2=BBT3650263.1.2.0,Phases=2,Linecode=BT307_BT307_7_2_1,Length=0.000501000,Units=km
new line.12099088 bus1=BBT3657011.1.2.0,bus2=BBT3657018.1.2.0,Phases=2,Linecode=BT808_BT808_4_2_3,Length=0.036884000,Units=km
new line.12099116 bus1=BBT3657004.1.2.0,bus2=BBT3657011.1.2.0,Phases=2,Linecode=BT808_BT808_4_2_3,Length=0.030271000,Units=km
new line.12099137 bus1=BBT3656997.1.2.0,bus2=BBT3657004.1.2.0,Phases=2,Linecode=BT808_BT808_4_2_3,Length=0.034138000,Units=km
new line.12099193 bus1=BBT3656983.1.2.0,bus2=BBT3656997.1.2.0,Phases=2,Linecode=BT808_BT808_4_2_3,Length=0.031406000,Units=km
new line.12099207 bus1=BBT3656976.1.2.0,bus2=BBT3656983.1.2.0,Phases=2,Linecode=BT807_BT807_4_2_3,Length=0.033021000,Units=km
new line.12099221 bus1=BBT3656962.1.2.0,bus2=BBT3656976.1.2.0,Phases=2,Linecode=BT807_BT807_4_2_3,Length=0.034488000,Units=km
new line.12099228 bus1=BBT3656955.1.2.0,bus2=BBT3656962.1.2.0,Phases=2,Linecode=BT518_BT518_7_2_1,Length=0.000501000,Units=km
new line.12099235 bus1=BBT3656962.1.2.0,bus2=BBT3656969.1.2.0,Phases=2,Linecode=BT807_BT807_4_2_3,Length=0.037583000,Units=km
new line.12099291 bus1=BBT3656969.1.2.0,bus2=BBT4118696.1.2.0,Phases=2,Linecode=BT808_BT808_4_2_3,Length=0.040504000,Units=km
new line.12104366 bus1=BBT3658404.1.2.0,bus2=BBT3658411.1.2.0,Phases=2,Linecode=BT519_BT519_7_2_1,Length=0.000501000,Units=km
new line.12614729 bus1=BBT860042.1.2.0,bus2=BBT3989287.1.2.0,Phases=2,Linecode=BT508_BT508_7_2_1,Length=0.000501000,Units=km
new line.12614932 bus1=BBT4765587.1.2.0,bus2=BBT4765594.1.2.0,Phases=2,Linecode=BT518_BT518_7_2_1,Length=0.000501000,Units=km
new line.12619699 bus1=BBT4209857.2.0,bus2=BBT4209864.2.0,Phases=1,Linecode=BT107_BT107_7_1_1,Length=0.116742000,Units=km
new line.12619727 bus1=BBT3992969.2.0,bus2=BBT4209857.2.0,Phases=1,Linecode=BT107_BT107_7_1_1,Length=0.058318000,Units=km
new line.12619734 bus1=BBT3992962.1.2.0,bus2=BBT3992969.1.2.0,Phases=2,Linecode=BT519_BT519_7_2_1,Length=0.000501000,Units=km
new line.12619741 bus1=BBT3992969.1.0,bus2=BBT4209843.1.0,Phases=1,Linecode=BT107_BT107_7_1_1,Length=0.050007000,Units=km
new line.12619762 bus1=BBT4209864.2.0,bus2=BBT4209871.2.0,Phases=1,Linecode=BT107_BT107_7_1_1,Length=0.073834000,Units=km
new line.12619776 bus1=BBT4209871.2.0,bus2=BBT4209878.2.0,Phases=1,Linecode=BT107_BT107_7_1_1,Length=0.078043000,Units=km
new line.12623633 bus1=BBT21274829.1.2.0,bus2=BBT21274836.1.2.0,Phases=2,Linecode=BT505_BT505_7_2_1,Length=0.000501000,Units=km
new line.12630577 bus1=BBT862541.1.2.0,bus2=BBT3992402.1.2.0,Phases=2,Linecode=BT505_BT505_7_2_1,Length=0.000501000,Units=km
new line.12633258 bus1=BBT4209843.1.0,bus2=BBT4209850.1.0,Phases=1,Linecode=BT107_BT107_7_1_1,Length=0.075010000,Units=km
new line.13189891 bus1=BBT4108077.1.2.3.0,bus2=BBT838272.1.2.3.0,Phases=3,Linecode=BT803_BT803_4_3_4,Length=0.025947000,Units=km
new line.13189898 bus1=BBT4108077.1.2.3.0,bus2=BBT838279.1.2.3.0,Phases=3,Linecode=BT803_BT803_4_3_4,Length=0.014215000,Units=km
new line.13189905 bus1=BBT4108077.1.2.3.0,bus2=BBT4108140.1.2.3.0,Phases=3,Linecode=BT803_BT803_4_3_4,Length=0.005658000,Units=km
new line.13195484 bus1=BBT4110520.1.2.3.0,bus2=BBT4110527.1.2.3.0,Phases=3,Linecode=BT808_BT808_4_3_3,Length=0.035234000,Units=km
new line.13195526 bus1=BBT4118542.1.2.0,bus2=BBT4118549.1.2.0,Phases=2,Linecode=BT808_BT808_4_2_3,Length=0.025084000,Units=km
new line.13208546 bus1=BBT4118066.1.2.0,bus2=BBT4869796.1.2.0,Phases=2,Linecode=BT808_BT808_4_2_3,Length=0.041768000,Units=km
new line.13208567 bus1=BBT4118073.1.2.0,bus2=BBT4118066.1.2.0,Phases=2,Linecode=BT808_BT808_4_2_3,Length=0.045362000,Units=km
new line.13208581 bus1=BBT4118080.1.2.0,bus2=BBT4118073.1.2.0,Phases=2,Linecode=BT808_BT808_4_2_3,Length=0.044930000,Units=km
new line.13208602 bus1=BBT4118087.1.2.0,bus2=BBT4118080.1.2.0,Phases=2,Linecode=BT808_BT808_4_2_3,Length=0.046580000,Units=km
new line.13208609 bus1=BBT4869733.1.2.0,bus2=BBT4118087.1.2.0,Phases=2,Linecode=BT518_BT518_7_2_1,Length=0.000501000,Units=km
new line.13208616 bus1=BBT4118087.1.2.0,bus2=BBT4118094.1.2.0,Phases=2,Linecode=BT808_BT808_4_2_3,Length=0.042727000,Units=km
new line.13208644 bus1=BBT4118094.1.2.0,bus2=BBT4118101.1.2.0,Phases=2,Linecode=BT808_BT808_4_2_3,Length=0.046848000,Units=km
new line.13208672 bus1=BBT4118101.1.2.0,bus2=BBT4118108.1.2.0,Phases=2,Linecode=BT808_BT808_4_2_3,Length=0.052782000,Units=km
new line.13208700 bus1=BBT4118108.1.2.0,bus2=BBT4118115.1.2.0,Phases=2,Linecode=BT808_BT808_4_2_3,Length=0.053046000,Units=km
new line.13208770 bus1=BBT4118192.1.2.0,bus2=BBT4118199.1.2.0,Phases=2,Linecode=BT803_BT803_4_2_4,Length=0.045285000,Units=km
new line.13208861 bus1=BBT4118206.1.2.0,bus2=BBT4118213.1.2.0,Phases=2,Linecode=BT808_BT808_4_2_3,Length=0.024170000,Units=km
new line.13208875 bus1=BBT4118213.1.2.0,bus2=BBT4118220.1.2.0,Phases=2,Linecode=BT808_BT808_4_2_3,Length=0.029074000,Units=km
new line.13208903 bus1=BBT4118220.1.2.0,bus2=BBT4744034.1.2.0,Phases=2,Linecode=BT808_BT808_4_2_3,Length=0.040504000,Units=km
new line.13209029 bus1=BBT4118276.1.2.0,bus2=BBT851019.1.2.0,Phases=2,Linecode=BT807_BT807_4_2_3,Length=0.040823000,Units=km
new line.13209043 bus1=BBT4118283.1.2.0,bus2=BBT4118276.1.2.0,Phases=2,Linecode=BT807_BT807_4_2_3,Length=0.045615000,Units=km
new line.13209050 bus1=BBT4118304.1.2.0,bus2=BBT4118283.1.2.0,Phases=2,Linecode=BT513_BT513_7_2_1,Length=0.000501000,Units=km
new line.13209057 bus1=BBT4118283.1.2.0,bus2=BBT4118290.1.2.0,Phases=2,Linecode=BT807_BT807_4_2_3,Length=0.042114000,Units=km
new line.13209141 bus1=BBT4118290.1.2.0,bus2=BBT4118297.1.2.0,Phases=2,Linecode=BT807_BT807_4_2_3,Length=0.038594000,Units=km
new line.13209190 bus1=BBT4118297.1.2.0,bus2=BBT4118311.1.2.0,Phases=2,Linecode=BT808_BT808_4_2_3,Length=0.045130000,Units=km
new line.13209260 bus1=BBT4118311.1.2.0,bus2=BBT4118318.1.2.0,Phases=2,Linecode=BT808_BT808_4_2_3,Length=0.046008000,Units=km
new line.13209400 bus1=BBT4118318.1.2.0,bus2=BBT4118325.1.2.0,Phases=2,Linecode=BT808_BT808_4_2_3,Length=0.046018000,Units=km
new line.13209505 bus1=BBT4118353.1.2.0,bus2=BBT4118360.1.2.0,Phases=2,Linecode=BT808_BT808_4_2_3,Length=0.033621000,Units=km
new line.13209533 bus1=BBT4118360.1.2.0,bus2=BBT4118367.1.2.0,Phases=2,Linecode=BT808_BT808_4_2_3,Length=0.040269000,Units=km
new line.13209554 bus1=BBT4118367.1.2.0,bus2=BBT4118374.1.2.0,Phases=2,Linecode=BT808_BT808_4_2_3,Length=0.033740000,Units=km
new line.13209946 bus1=BBT4118521.1.2.0,bus2=BBT4118542.1.2.0,Phases=2,Linecode=BT808_BT808_4_2_3,Length=0.036228000,Units=km
new line.13209953 bus1=BBT4118521.1.2.0,bus2=BBT4118556.1.2.0,Phases=2,Linecode=BT807_BT807_4_2_3,Length=0.039212000,Units=km
new line.13209960 bus1=BBT4118521.1.2.0,bus2=BBT4118570.1.2.0,Phases=2,Linecode=BT808_BT808_4_2_3,Length=0.040007000,Units=km
new line.13209981 bus1=BBT4118535.1.2.0,bus2=BBT4118584.1.2.0,Phases=2,Linecode=BT807_BT807_4_2_3,Length=0.009222000,Units=km
new line.13210002 bus1=BBT4118514.1.2.0,bus2=BBT4118521.1.2.0,Phases=2,Linecode=BT807_BT807_4_2_3,Length=0.046182000,Units=km
new line.13210009 bus1=BBT4118507.1.2.0,bus2=BBT4118514.1.2.0,Phases=2,Linecode=BT513_BT513_7_2_1,Length=0.000501000,Units=km
new line.13210016 bus1=BBT4118514.1.2.0,bus2=BBT4118528.1.2.0,Phases=2,Linecode=BT807_BT807_4_2_3,Length=0.047104000,Units=km
new line.13210065 bus1=BBT4118528.1.2.0,bus2=BBT4118535.1.2.0,Phases=2,Linecode=BT807_BT807_4_2_3,Length=0.045108000,Units=km
new line.13210513 bus1=BBT4118570.1.2.0,bus2=BBT4118577.1.2.0,Phases=2,Linecode=BT808_BT808_4_2_3,Length=0.031628000,Units=km
new line.13210667 bus1=BBT4118584.1.2.0,bus2=BBT4118591.1.2.0,Phases=2,Linecode=BT808_BT808_4_2_3,Length=0.045975000,Units=km
new line.13210688 bus1=BBT4118591.1.2.0,bus2=BBT4118598.1.2.0,Phases=2,Linecode=BT808_BT808_4_2_3,Length=0.044561000,Units=km
new line.13210786 bus1=BBT4118710.1.2.0,bus2=BBT4118717.1.2.0,Phases=2,Linecode=BT808_BT808_4_2_3,Length=0.037649000,Units=km
new line.13210807 bus1=BBT4118703.1.2.0,bus2=BBT4118710.1.2.0,Phases=2,Linecode=BT808_BT808_4_2_3,Length=0.046181000,Units=km
new line.13210835 bus1=BBT4118696.1.2.0,bus2=BBT4118703.1.2.0,Phases=2,Linecode=BT808_BT808_4_2_3,Length=0.045702000,Units=km
new line.13211087 bus1=BBT4118738.1.2.0,bus2=BBT4118745.1.2.0,Phases=2,Linecode=BT807_BT807_4_2_3,Length=0.031021000,Units=km
new line.13211094 bus1=BBT4118738.1.2.0,bus2=BBT4118752.1.2.0,Phases=2,Linecode=BT808_BT808_4_2_3,Length=0.055236000,Units=km
new line.13211115 bus1=BBT4118752.1.2.0,bus2=BBT4118759.1.2.0,Phases=2,Linecode=BT808_BT808_4_2_3,Length=0.038282000,Units=km
new line.13211143 bus1=BBT4118759.1.2.0,bus2=BBT4118766.1.2.0,Phases=2,Linecode=BT808_BT808_4_2_3,Length=0.041202000,Units=km
new line.13211164 bus1=BBT4118766.1.2.0,bus2=BBT4118773.1.2.0,Phases=2,Linecode=BT808_BT808_4_2_3,Length=0.048174000,Units=km
new line.13211192 bus1=BBT4118773.1.2.0,bus2=BBT4118822.1.2.0,Phases=2,Linecode=BT808_BT808_4_2_3,Length=0.050258000,Units=km
new line.13211213 bus1=BBT4118822.1.2.0,bus2=BBT4620834.1.2.0,Phases=2,Linecode=BT808_BT808_4_2_3,Length=0.050367000,Units=km
new line.13211304 bus1=BBT4118731.1.2.0,bus2=BBT4118738.1.2.0,Phases=2,Linecode=BT807_BT807_4_2_3,Length=0.043193000,Units=km
new line.13211311 bus1=BBT4118724.1.2.0,bus2=BBT4118731.1.2.0,Phases=2,Linecode=BT513_BT513_7_2_1,Length=0.000501000,Units=km
new line.13211318 bus1=BBT4118731.1.2.0,bus2=BBT4118829.1.2.0,Phases=2,Linecode=BT807_BT807_4_2_3,Length=0.042197000,Units=km
new line.13211731 bus1=BBT4118829.1.2.0,bus2=BBT4118836.1.2.0,Phases=2,Linecode=BT807_BT807_4_2_3,Length=0.047273000,Units=km
new line.13211752 bus1=BBT4118836.1.2.0,bus2=BBT4118843.1.2.0,Phases=2,Linecode=BT808_BT808_4_2_3,Length=0.049171000,Units=km
new line.13211766 bus1=BBT4118843.1.2.0,bus2=BBT4194989.1.2.0,Phases=2,Linecode=BT808_BT808_4_2_3,Length=0.046008000,Units=km
new line.13211913 bus1=BBT4118885.1.2.3.0,bus2=BBT4092733.1.2.3.0,Phases=3,Linecode=BT810_BT810_4_3_4,Length=0.020227000,Units=km
new line.13212214 bus1=BBT4118941.1.2.0,bus2=BBT4483606.1.2.0,Phases=2,Linecode=BT808_BT808_4_2_3,Length=0.046397000,Units=km
new line.13212305 bus1=BBT4118990.1.2.3.0,bus2=BBT4118983.1.2.3.0,Phases=3,Linecode=BT803_BT803_4_3_4,Length=0.021545000,Units=km
new line.13212326 bus1=BBT4118997.1.2.3.0,bus2=BBT4118990.1.2.3.0,Phases=3,Linecode=BT803_BT803_4_3_4,Length=0.033247000,Units=km
new line.13212333 bus1=BBT4118990.1.2.3.0,bus2=BBT4119011.1.2.3.0,Phases=3,Linecode=BT803_BT803_4_3_4,Length=0.034488000,Units=km
new line.13212354 bus1=BBT4118997.1.2.3.0,bus2=BBT4119004.1.2.3.0,Phases=3,Linecode=BT803_BT803_4_3_4,Length=0.043745000,Units=km
new line.13212375 bus1=BBT4119004.1.2.3.0,bus2=BBT4282426.1.2.3.0,Phases=3,Linecode=BT810_BT810_4_3_4,Length=0.022208000,Units=km
new line.13212403 bus1=BBT4119011.1.2.3.0,bus2=BBT4119018.1.2.3.0,Phases=3,Linecode=BT803_BT803_4_3_4,Length=0.035234000,Units=km
new line.11370948 bus1=BBT862163.1.2.0,bus2=BBT862170.1.2.0,Phases=2,Linecode=BT521_BT521_7_2_1,Length=0.000501000,Units=km
new line.11383863 bus1=BBT3408784.1.2.0,bus2=BBT3408791.1.2.0,Phases=2,Linecode=BT307_BT307_7_2_1,Length=0.000501000,Units=km
new line.11386453 bus1=BBT3409379.1.2.0,bus2=BBT3409386.1.2.0,Phases=2,Linecode=BT513_BT513_7_2_1,Length=0.000501000,Units=km
new line.11393299 bus1=BBT4488920.1.2.0,bus2=BBT4488927.1.2.0,Phases=2,Linecode=BT808_BT808_4_2_3,Length=0.048608000,Units=km
new line.11403575 bus1=BBT3414202.1.2.0,bus2=BBT3414209.1.2.0,Phases=2,Linecode=BT505_BT505_7_2_1,Length=0.000501000,Units=km
new line.11822518 bus1=BBT3560957.1.2.0,bus2=BBT3560964.1.2.0,Phases=2,Linecode=BT505_BT505_7_2_1,Length=0.000501000,Units=km
new line.11838688 bus1=BBT3567453.1.2.0,bus2=BBT3567460.1.2.0,Phases=2,Linecode=BT316_BT316_7_2_1,Length=0.000501000,Units=km
new line.11844806 bus1=BBT4119235.1.2.0,bus2=BBT4119242.1.2.0,Phases=2,Linecode=BT808_BT808_4_2_3,Length=0.028325000,Units=km
new line.11844862 bus1=BBT4119249.1.2.0,bus2=BBT4119256.1.2.0,Phases=2,Linecode=BT808_BT808_4_2_3,Length=0.043193000,Units=km
new line.11854662 bus1=BBT3572787.1.2.0,bus2=BBT3572794.1.2.0,Phases=2,Linecode=BT301_BT301_7_2_1,Length=0.000501000,Units=km
new line.11854928 bus1=BBT3572801.1.2.0,bus2=BBT3572808.1.2.0,Phases=2,Linecode=BT301_BT301_7_2_1,Length=0.000501000,Units=km
new line.11855173 bus1=BBT3572857.1.2.0,bus2=BBT3572864.1.2.0,Phases=2,Linecode=BT304_BT304_7_2_1,Length=0.000501000,Units=km
new line.11855180 bus1=BBT3572864.1.2.0,bus2=BBT4211509.1.2.0,Phases=2,Linecode=BT808_BT808_4_2_3,Length=0.039818000,Units=km
new line.11855243 bus1=BBT3572948.1.2.0,bus2=BBT3572955.1.2.0,Phases=2,Linecode=BT808_BT808_4_2_3,Length=0.029551000,Units=km
new line.11855299 bus1=BBT3572913.1.2.0,bus2=BBT3572948.1.2.0,Phases=2,Linecode=BT808_BT808_4_2_3,Length=0.057078000,Units=km
new line.11855306 bus1=BBT3572906.1.2.0,bus2=BBT3572962.1.2.0,Phases=2,Linecode=BT304_BT304_7_2_1,Length=0.000501000,Units=km
new line.11855313 bus1=BBT3572962.1.2.0,bus2=BBT3572913.1.2.0,Phases=2,Linecode=BT808_BT808_4_2_3,Length=0.041732000,Units=km
new line.11855439 bus1=BBT3572962.1.2.0,bus2=BBT3572969.1.2.0,Phases=2,Linecode=BT808_BT808_4_2_3,Length=0.036802000,Units=km
new line.12310670 bus1=BBT3751014.1.2.0,bus2=BBT3751021.1.2.0,Phases=2,Linecode=BT519_BT519_7_2_1,Length=0.000501000,Units=km
new line.12311230 bus1=BBT3751210.1.2.0,bus2=BBT3751217.1.2.0,Phases=2,Linecode=BT517_BT517_7_2_1,Length=0.000501000,Units=km
new line.12315507 bus1=BBT3753492.1.2.0,bus2=BBT3753499.1.2.0,Phases=2,Linecode=BT316_BT316_7_2_1,Length=0.000501000,Units=km
new line.12315514 bus1=BBT3753499.2.0,bus2=BBT4210221.2.0,Phases=1,Linecode=BT107_BT107_7_1_1,Length=0.065201000,Units=km
new line.12315570 bus1=BBT3753625.2.0,bus2=BBT3753632.2.0,Phases=1,Linecode=BT107_BT107_7_1_1,Length=0.081895000,Units=km
new line.12315598 bus1=BBT3753485.1.2.0,bus2=BBT3753625.1.2.0,Phases=2,Linecode=BT107_BT107_7_2_1,Length=0.043018000,Units=km
new line.12315605 bus1=BBT3753478.1.2.0,bus2=BBT3753485.1.2.0,Phases=2,Linecode=BT304_BT304_7_2_1,Length=0.000501000,Units=km
new line.12315801 bus1=BBT3753562.1.2.0,bus2=BBT3753569.1.2.0,Phases=2,Linecode=BT316_BT316_7_2_1,Length=0.000501000,Units=km
new line.12315892 bus1=BBT3753576.1.2.0,bus2=BBT3753583.1.2.0,Phases=2,Linecode=BT304_BT304_7_2_1,Length=0.000501000,Units=km
new line.12315983 bus1=BBT3753835.1.2.0,bus2=BBT3753842.1.2.0,Phases=2,Linecode=BT316_BT316_7_2_1,Length=0.000501000,Units=km
new line.12316004 bus1=BBT3753695.1.2.0,bus2=BBT3753702.1.2.0,Phases=2,Linecode=BT107_BT107_7_2_1,Length=0.041442000,Units=km
new line.12316025 bus1=BBT3753702.1.2.0,bus2=BBT3753709.1.2.0,Phases=2,Linecode=BT107_BT107_7_2_1,Length=0.037127000,Units=km
new line.12316053 bus1=BBT3753597.1.2.0,bus2=BBT3753695.1.2.0,Phases=2,Linecode=BT107_BT107_7_2_1,Length=0.028288000,Units=km
new line.12316060 bus1=BBT3753590.1.2.0,bus2=BBT3753597.1.2.0,Phases=2,Linecode=BT505_BT505_7_2_1,Length=0.000501000,Units=km
new line.12316109 bus1=BBT3753611.1.2.0,bus2=BBT3753618.1.2.0,Phases=2,Linecode=BT518_BT518_7_2_1,Length=0.000501000,Units=km
new line.12316116 bus1=BBT3753618.1.2.0,bus2=BBT3753716.1.2.0,Phases=2,Linecode=BT107_BT107_7_2_1,Length=0.062041000,Units=km
new line.12316123 bus1=BBT3753618.1.2.0,bus2=BBT3753744.1.2.0,Phases=2,Linecode=BT810_BT810_4_2_4,Length=0.028182000,Units=km
new line.12316130 bus1=BBT3753618.1.2.0,bus2=BBT3753730.1.2.0,Phases=2,Linecode=BT107_BT107_7_2_1,Length=0.059371000,Units=km
new line.12316158 bus1=BBT3753716.1.2.0,bus2=BBT3753723.1.2.0,Phases=2,Linecode=BT107_BT107_7_2_1,Length=0.065155000,Units=km
new line.12316256 bus1=BBT3753730.1.2.0,bus2=BBT3753737.1.2.0,Phases=2,Linecode=BT107_BT107_7_2_1,Length=0.056408000,Units=km
new line.12316578 bus1=BBT3753821.1.2.0,bus2=BBT3753828.1.2.0,Phases=2,Linecode=BT517_BT517_7_2_1,Length=0.000501000,Units=km
new line.12316711 bus1=BBT3753807.1.2.0,bus2=BBT3753814.1.2.0,Phases=2,Linecode=BT517_BT517_7_2_1,Length=0.000501000,Units=km
new line.12316767 bus1=BBT3753793.1.2.0,bus2=BBT3753800.1.2.0,Phases=2,Linecode=BT505_BT505_7_2_1,Length=0.000501000,Units=km
new line.12316774 bus1=BBT3753800.1.2.0,bus2=BBT4210508.1.2.0,Phases=2,Linecode=BT107_BT107_7_2_1,Length=0.071598000,Units=km
new line.12316781 bus1=BBT3753800.1.0,bus2=BBT4210522.1.0,Phases=1,Linecode=BT810_BT810_4_1_4,Length=0.083011000,Units=km
new line.12316816 bus1=BBT3753884.1.2.0,bus2=BBT3753891.1.2.0,Phases=2,Linecode=BT508_BT508_7_2_1,Length=0.000501000,Units=km
new line.12316837 bus1=BBT3753898.1.2.0,bus2=BBT3753905.1.2.0,Phases=2,Linecode=BT316_BT316_7_2_1,Length=0.000501000,Units=km
new line.12316865 bus1=BBT3753912.1.2.0,bus2=BBT3753919.1.2.0,Phases=2,Linecode=BT508_BT508_7_2_1,Length=0.000501000,Units=km
new line.12316900 bus1=BBT3753926.1.2.0,bus2=BBT3753933.1.2.0,Phases=2,Linecode=BT508_BT508_7_2_1,Length=0.000501000,Units=km
new line.12325342 bus1=BBT3757083.1.2.0,bus2=BBT3757090.1.2.0,Phases=2,Linecode=BT807_BT807_4_2_3,Length=0.038059000,Units=km
new line.12325356 bus1=BBT3757090.1.2.0,bus2=BBT4119228.1.2.0,Phases=2,Linecode=BT808_BT808_4_2_3,Length=0.029074000,Units=km
new line.12843048 bus1=BBT4037426.1.2.3.0,bus2=BBT837453.1.2.3.0,Phases=3,Linecode=BT007_BT005_7_3_1,Length=0.028797000,Units=km
new line.12843055 bus1=BBT4037426.1.2.3.0,bus2=BBT837460.1.2.3.0,Phases=3,Linecode=BT007_BT005_7_3_1,Length=0.032900000,Units=km
new line.12843062 bus1=BBT4037419.1.2.3.0,bus2=BBT4037426.1.2.3.0,Phases=3,Linecode=BT513_BT513_7_3_1,Length=0.000501000,Units=km
new line.13294737 bus1=BBT4153297.1.2.0,bus2=BBT4153304.1.2.0,Phases=2,Linecode=BT808_BT808_4_2_3,Length=0.030877000,Units=km
new line.13294786 bus1=BBT4153304.1.2.0,bus2=BBT4153311.1.2.0,Phases=2,Linecode=BT808_BT808_4_2_3,Length=0.041602000,Units=km
new line.13294828 bus1=BBT4153290.1.2.0,bus2=BBT4153297.1.2.0,Phases=2,Linecode=BT808_BT808_4_2_3,Length=0.032656000,Units=km
new line.13294856 bus1=BBT4153283.1.2.0,bus2=BBT4153290.1.2.0,Phases=2,Linecode=BT808_BT808_4_2_3,Length=0.033293000,Units=km
new line.13294884 bus1=BBT4153150.1.2.0,bus2=BBT4153283.1.2.0,Phases=2,Linecode=BT807_BT807_4_2_3,Length=0.043425000,Units=km
new line.13294891 bus1=BBT4153143.1.2.0,bus2=BBT4153150.1.2.0,Phases=2,Linecode=BT513_BT513_7_2_1,Length=0.000501000,Units=km
new line.13294898 bus1=BBT4153150.1.2.0,bus2=BBT4153255.1.2.0,Phases=2,Linecode=BT807_BT807_4_2_3,Length=0.051098000,Units=km
new line.13294996 bus1=BBT4153241.1.2.0,bus2=BBT4153248.1.2.0,Phases=2,Linecode=BT808_BT808_4_2_3,Length=0.060178000,Units=km
new line.13295017 bus1=BBT4153255.1.2.0,bus2=BBT4153262.1.2.0,Phases=2,Linecode=BT808_BT808_4_2_3,Length=0.079897000,Units=km
new line.13295038 bus1=BBT4153262.1.2.0,bus2=BBT4153269.1.2.0,Phases=2,Linecode=BT808_BT808_4_2_3,Length=0.086994000,Units=km
new line.13295059 bus1=BBT4153269.1.2.0,bus2=BBT4153276.1.2.0,Phases=2,Linecode=BT808_BT808_4_2_3,Length=0.065013000,Units=km
new line.13295101 bus1=BBT4153234.1.2.0,bus2=BBT4153241.1.2.0,Phases=2,Linecode=BT808_BT808_4_2_3,Length=0.064301000,Units=km
new line.13295122 bus1=BBT4153227.1.2.0,bus2=BBT4153234.1.2.0,Phases=2,Linecode=BT808_BT808_4_2_3,Length=0.075599000,Units=km
new line.13295157 bus1=BBT4153220.1.2.0,bus2=BBT4153227.1.2.0,Phases=2,Linecode=BT808_BT808_4_2_3,Length=0.044920000,Units=km
new line.13295206 bus1=BBT4153213.1.2.0,bus2=BBT4153220.1.2.0,Phases=2,Linecode=BT808_BT808_4_2_3,Length=0.064951000,Units=km
new line.13295220 bus1=BBT4153206.1.2.0,bus2=BBT4153213.1.2.0,Phases=2,Linecode=BT808_BT808_4_2_3,Length=0.054600000,Units=km
new line.13295241 bus1=BBT4153199.1.2.0,bus2=BBT4153206.1.2.0,Phases=2,Linecode=BT808_BT808_4_2_3,Length=0.052622000,Units=km
new line.13295255 bus1=BBT4153164.1.2.0,bus2=BBT4153199.1.2.0,Phases=2,Linecode=BT807_BT807_4_2_3,Length=0.061673000,Units=km
new line.13295262 bus1=BBT4153157.1.2.0,bus2=BBT4153164.1.2.0,Phases=2,Linecode=BT513_BT513_7_2_1,Length=0.000501000,Units=km
new line.13295269 bus1=BBT4153164.1.2.0,bus2=BBT4153185.1.2.0,Phases=2,Linecode=BT807_BT807_4_2_3,Length=0.036504000,Units=km
new line.13295290 bus1=BBT4153185.1.2.0,bus2=BBT4153192.1.2.0,Phases=2,Linecode=BT807_BT807_4_2_3,Length=0.039123000,Units=km
new line.13308380 bus1=BBT4158883.1.2.0,bus2=BBT4982608.1.2.0,Phases=2,Linecode=BT808_BT808_4_2_3,Length=0.043688000,Units=km
new line.13308408 bus1=BBT4158792.1.2.0,bus2=BBT4158883.1.2.0,Phases=2,Linecode=BT808_BT808_4_2_3,Length=0.034444000,Units=km
new line.13308415 bus1=BBT4158792.1.2.0,bus2=BBT4158848.1.2.0,Phases=2,Linecode=BT807_BT807_4_2_3,Length=0.042493000,Units=km
new line.13308478 bus1=BBT4158547.1.2.0,bus2=BBT4158792.1.2.0,Phases=2,Linecode=BT807_BT807_4_2_3,Length=0.035347000,Units=km
new line.13308485 bus1=BBT4158540.1.2.0,bus2=BBT4158547.1.2.0,Phases=2,Linecode=BT513_BT513_7_2_1,Length=0.000501000,Units=km
new line.13308492 bus1=BBT4158547.1.2.0,bus2=BBT4158785.1.2.0,Phases=2,Linecode=BT807_BT807_4_2_3,Length=0.044729000,Units=km
new line.13308527 bus1=BBT4158848.1.2.0,bus2=BBT4158855.1.2.0,Phases=2,Linecode=BT807_BT807_4_2_3,Length=0.033547000,Units=km
new line.13308548 bus1=BBT4158855.1.2.0,bus2=BBT4158862.1.2.0,Phases=2,Linecode=BT807_BT807_4_2_3,Length=0.034006000,Units=km
new line.13308569 bus1=BBT4158862.1.2.0,bus2=BBT4159226.1.2.0,Phases=2,Linecode=BT808_BT808_4_2_3,Length=0.012372000,Units=km
new line.13308576 bus1=BBT4158862.1.2.0,bus2=BBT4158869.1.2.0,Phases=2,Linecode=BT807_BT807_4_2_3,Length=0.037168000,Units=km
new line.13308604 bus1=BBT4158869.1.2.0,bus2=BBT4158876.1.2.0,Phases=2,Linecode=BT807_BT807_4_2_3,Length=0.029972000,Units=km
new line.13308632 bus1=BBT4158988.1.2.0,bus2=BBT4159044.1.2.0,Phases=2,Linecode=BT807_BT807_4_2_3,Length=0.008248000,Units=km
new line.13308688 bus1=BBT4158995.1.2.0,bus2=BBT4159002.1.2.0,Phases=2,Linecode=BT807_BT807_4_2_3,Length=0.022027000,Units=km
new line.13308709 bus1=BBT4159002.1.2.0,bus2=BBT4159009.1.2.0,Phases=2,Linecode=BT807_BT807_4_2_3,Length=0.026081000,Units=km
new line.13308723 bus1=BBT4159009.1.2.0,bus2=BBT4159016.1.2.0,Phases=2,Linecode=BT808_BT808_4_2_3,Length=0.009436000,Units=km
new line.13308744 bus1=BBT4159016.1.2.0,bus2=BBT4159023.1.2.0,Phases=2,Linecode=BT808_BT808_4_2_3,Length=0.041444000,Units=km
new line.13308884 bus1=BBT4158904.1.2.0,bus2=BBT4158988.1.2.0,Phases=2,Linecode=BT807_BT807_4_2_3,Length=0.044053000,Units=km
new line.13308891 bus1=BBT4158897.1.2.0,bus2=BBT4158904.1.2.0,Phases=2,Linecode=BT518_BT518_7_2_1,Length=0.000501000,Units=km
new line.13308898 bus1=BBT4158904.1.2.0,bus2=BBT4159142.1.2.0,Phases=2,Linecode=BT807_BT807_4_2_3,Length=0.026081000,Units=km
new line.13308968 bus1=BBT4159212.1.2.0,bus2=BBT4159219.1.2.0,Phases=2,Linecode=BT807_BT807_4_2_3,Length=0.029074000,Units=km
new line.13308982 bus1=BBT4159086.1.2.0,bus2=BBT4159212.1.2.0,Phases=2,Linecode=BT807_BT807_4_2_3,Length=0.033021000,Units=km
new line.13308989 bus1=BBT4159086.1.2.0,bus2=BBT4159492.1.2.0,Phases=2,Linecode=BT808_BT808_4_2_3,Length=0.009436000,Units=km
new line.13309017 bus1=BBT4159492.1.2.0,bus2=BBT4159499.1.2.0,Phases=2,Linecode=BT808_BT808_4_2_3,Length=0.035347000,Units=km
new line.13309059 bus1=BBT4159499.1.2.0,bus2=BBT4159506.1.2.0,Phases=2,Linecode=BT808_BT808_4_2_3,Length=0.040256000,Units=km
new line.13309087 bus1=BBT4158827.1.2.0,bus2=BBT4158834.1.2.0,Phases=2,Linecode=BT808_BT808_4_2_3,Length=0.042493000,Units=km
new line.13309129 bus1=BBT4158820.1.2.0,bus2=BBT4158827.1.2.0,Phases=2,Linecode=BT808_BT808_4_2_3,Length=0.035347000,Units=km
new line.13309157 bus1=BBT4158813.1.2.0,bus2=BBT4158820.1.2.0,Phases=2,Linecode=BT808_BT808_4_2_3,Length=0.025617000,Units=km
new line.13309227 bus1=BBT4158799.1.2.0,bus2=BBT4158813.1.2.0,Phases=2,Linecode=BT808_BT808_4_2_3,Length=0.032021000,Units=km
new line.13309262 bus1=BBT4158785.1.2.0,bus2=BBT4158799.1.2.0,Phases=2,Linecode=BT808_BT808_4_2_3,Length=0.034211000,Units=km
new line.13309269 bus1=BBT4158785.1.2.0,bus2=BBT4158806.1.2.0,Phases=2,Linecode=BT808_BT808_4_2_3,Length=0.033532000,Units=km
new line.13309822 bus1=BBT4159044.1.2.0,bus2=BBT4159058.1.2.0,Phases=2,Linecode=BT808_BT808_4_2_3,Length=0.008248000,Units=km
new line.13309829 bus1=BBT4159044.1.2.0,bus2=BBT4159051.1.2.0,Phases=2,Linecode=BT808_BT808_4_2_3,Length=0.035446000,Units=km
new line.13309836 bus1=BBT4159044.1.2.0,bus2=BBT4158995.1.2.0,Phases=2,Linecode=BT807_BT807_4_2_3,Length=0.012372000,Units=km
new line.13309885 bus1=BBT4159079.1.2.0,bus2=BBT4159086.1.2.0,Phases=2,Linecode=BT807_BT807_4_2_3,Length=0.027079000,Units=km
new line.13309892 bus1=BBT4159072.1.2.0,bus2=BBT4159079.1.2.0,Phases=2,Linecode=BT518_BT518_7_2_1,Length=0.000501000,Units=km
new line.13309899 bus1=BBT4159079.1.2.0,bus2=BBT4159093.1.2.0,Phases=2,Linecode=BT807_BT807_4_2_3,Length=0.026081000,Units=km
new line.13309920 bus1=BBT4159093.1.2.0,bus2=BBT4159107.1.2.0,Phases=2,Linecode=BT807_BT807_4_2_3,Length=0.009851000,Units=km
new line.13309990 bus1=BBT4159387.1.2.0,bus2=BBT4159394.1.2.0,Phases=2,Linecode=BT808_BT808_4_2_3,Length=0.020619000,Units=km
new line.13310088 bus1=BBT4159107.1.2.0,bus2=BBT4159100.1.2.0,Phases=2,Linecode=BT807_BT807_4_2_3,Length=0.013419000,Units=km
new line.13310095 bus1=BBT4159107.1.2.0,bus2=BBT4159163.1.2.0,Phases=2,Linecode=BT808_BT808_4_2_3,Length=0.015655000,Units=km
new line.13310102 bus1=BBT4159107.1.2.0,bus2=BBT4159198.1.2.0,Phases=2,Linecode=BT808_BT808_4_2_3,Length=0.016128000,Units=km
new line.13310123 bus1=BBT4159163.1.2.0,bus2=BBT4159170.1.2.0,Phases=2,Linecode=BT808_BT808_4_2_3,Length=0.033547000,Units=km
new line.13310137 bus1=BBT4159170.1.2.0,bus2=BBT4159177.1.2.0,Phases=2,Linecode=BT808_BT808_4_2_3,Length=0.030468000,Units=km
new line.11233139 bus1=BBT3362780.1.2.0,bus2=BBT3362787.1.2.0,Phases=2,Linecode=BT517_BT517_7_2_1,Length=0.000501000,Units=km
new line.11234238 bus1=BBT3363214.1.2.0,bus2=BBT3363221.1.2.0,Phases=2,Linecode=BT519_BT519_7_2_1,Length=0.000501000,Units=km
new line.11234462 bus1=BBT3363235.1.2.0,bus2=BBT3363242.1.2.0,Phases=2,Linecode=BT505_BT505_7_2_1,Length=0.000501000,Units=km
new line.11234525 bus1=BBT3363256.1.2.0,bus2=BBT3363263.1.2.0,Phases=2,Linecode=BT505_BT505_7_2_1,Length=0.000501000,Units=km
new line.11234637 bus1=BBT3363270.1.2.0,bus2=BBT3363277.1.2.0,Phases=2,Linecode=BT519_BT519_7_2_1,Length=0.000501000,Units=km