new line.RML10000649 bus1=BBT992512.1.0,bus2=RML1060000649.1.0,Phases=1,Linecode=CABBT811_4_1,Length=0.017000000,Units=km
new line.RML10001657 bus1=BBT104174163.1.3.0,bus2=RML1060001657.1.3.0,Phases=2,Linecode=CABBTG05_4_2,Length=0.017000000,Units=km
new line.RML10001706 bus1=BBT104159183.2.3.0,bus2=RML1060001706.2.3.0,Phases=2,Linecode=CABBTG05_4_2,Length=0.017000000,Units=km
new line.RML10002532 bus1=BBT2179369.1.0,bus2=RML1060002532.1.0,Phases=1,Linecode=CABBTG02_4_1,Length=0.017000000,Units=km
new line.RML10019920 bus1=BBT1036850.1.2.3.0,bus2=RML1060019920.1.2.3.0,Phases=3,Linecode=CABBTG06_4_3,Length=0.017000000,Units=km
new line.RML10028600 bus1=BBT55552303.1.0,bus2=RML1060028600.1.0,Phases=1,Linecode=CABBTG02_4_1,Length=0.017000000,Units=km
new line.RML10029699 bus1=BBT3620235.1.0,bus2=RML1060029699.1.0,Phases=1,Linecode=CABBTG02_4_1,Length=0.017000000,Units=km
new line.RML10029734 bus1=BBT3620235.1.0,bus2=RML1060029734.1.0,Phases=1,Linecode=CABBTG02_4_1,Length=0.017000000,Units=km
new line.RML10032852 bus1=BBT53199127.1.0,bus2=RML1060032852.1.0,Phases=1,Linecode=CABBTG02_4_1,Length=0.017000000,Units=km
new line.RML10040557 bus1=BBT104164188.1.3.0,bus2=RML1060040557.1.3.0,Phases=2,Linecode=CABBTG05_4_2,Length=0.017000000,Units=km
new line.RML10044396 bus1=BBT93972818.2.3.0,bus2=RML1060044396.2.3.0,Phases=2,Linecode=CABBTG05_4_2,Length=0.017000000,Units=km
new line.RML10044413 bus1=BBT104165301.1.3.0,bus2=RML1060044413.1.3.0,Phases=2,Linecode=CABBTG05_4_2,Length=0.017000000,Units=km
new line.RML10044611 bus1=BBT75218712.1.2.0,bus2=RML1060044611.1.2.0,Phases=2,Linecode=CABBTG05_4_2,Length=0.017000000,Units=km
new line.RML10044823 bus1=BBT117268965.1.3.0,bus2=RML1060044823.1.3.0,Phases=2,Linecode=CABBTG05_4_2,Length=0.017000000,Units=km
new line.RML10045013 bus1=BBT148333187.1.2.0,bus2=RML1060045013.1.2.0,Phases=2,Linecode=CABBTG05_4_2,Length=0.017000000,Units=km
new line.RML10049414 bus1=BBT148439356.1.2.0,bus2=RML1060049414.1.2.0,Phases=2,Linecode=CABBTG05_4_2,Length=0.015000000,Units=km
new line.RML10050003 bus1=BBT2355776.1.2.0,bus2=RML1060050003.1.2.0,Phases=2,Linecode=CABBTG05_4_2,Length=0.017000000,Units=km
new line.RML10057859 bus1=BBT139298812.1.2.3.0,bus2=RML1060057859.1.2.3.0,Phases=3,Linecode=CABBTG09_4_3,Length=0.017000000,Units=km
new line.RML10057913 bus1=BBT24926827.1.2.0,bus2=RML1060057913.1.2.0,Phases=2,Linecode=CABBT807_4_2,Length=0.017000000,Units=km
new line.RML10061235 bus1=BBT161437437.1.2.3.0,bus2=RML1060061235.1.2.3.0,Phases=3,Linecode=CABBTG09_4_3,Length=0.017000000,Units=km
new line.RML10062436 bus1=BBT3089068.1.2.0,bus2=RML1060062436.1.2.0,Phases=2,Linecode=CABBTG04_4_2,Length=0.017000000,Units=km
new line.RML10062456 bus1=BBT3143682.1.2.0,bus2=RML1060062456.1.2.0,Phases=2,Linecode=CABBTG04_4_2,Length=0.017000000,Units=km
new line.RML10062459 bus1=BBT138741080.1.2.0,bus2=RML1060062459.1.2.0,Phases=2,Linecode=CABBTG05_4_2,Length=0.007000000,Units=km
new line.RML10066754 bus1=BBT103995362.1.2.0,bus2=RML1060066754.1.2.0,Phases=2,Linecode=CABBT811_4_2,Length=0.017000000,Units=km
new line.RML10074978 bus1=BBT149145861.1.2.0,bus2=RML1060074978.1.2.0,Phases=2,Linecode=CABBTG05_4_2,Length=0.017000000,Units=km
new line.RML10075789 bus1=BBT991455.1.2.0,bus2=RML1060075789.1.2.0,Phases=2,Linecode=CABBTG05_4_2,Length=0.017000000,Units=km
new line.RML10077405 bus1=BBT104165728.1.0,bus2=RML1060077405.1.0,Phases=1,Linecode=CABBTG01_4_1,Length=0.016000000,Units=km
new line.RML10077422 bus1=BBT104165728.1.2.0,bus2=RML1060077422.1.2.0,Phases=2,Linecode=CABBTG05_4_2,Length=0.010000000,Units=km
new line.RML10082002 bus1=BBT993093.1.2.3.0,bus2=RML1060082002.1.2.3.0,Phases=3,Linecode=CABBTG06_4_3,Length=0.006000000,Units=km
new line.RML10082063 bus1=BBT117377087.1.2.0,bus2=RML1060082063.1.2.0,Phases=2,Linecode=CABBT811_4_2,Length=0.026000000,Units=km
new line.RML10082235 bus1=BBT104165735.2.3.0,bus2=RML1060082235.2.3.0,Phases=2,Linecode=CABBTG05_4_2,Length=0.017000000,Units=km
new line.RML10082302 bus1=BBT1376357.1.2.3.0,bus2=RML1060082302.1.2.3.0,Phases=3,Linecode=CABBTG06_4_3,Length=0.023000000,Units=km
new line.RML10082885 bus1=BBT994591.1.0,bus2=RML1060082885.1.0,Phases=1,Linecode=CABBTG01_4_1,Length=0.015000000,Units=km
new line.RML10090359 bus1=BBT93980707.1.0,bus2=RML1060090359.1.0,Phases=1,Linecode=CABBTG01_4_1,Length=0.017000000,Units=km
new line.RML10092851 bus1=BBT23752577.1.0,bus2=RML1060092851.1.0,Phases=1,Linecode=CABBTG01_4_1,Length=0.017000000,Units=km
new line.RML10093366 bus1=BBT1036976.1.2.0,bus2=RML1060093366.1.2.0,Phases=2,Linecode=CABBTG05_4_2,Length=0.017000000,Units=km
new line.RML10093385 bus1=BBT4509011.1.2.0,bus2=RML1060093385.1.2.0,Phases=2,Linecode=CABBTG05_4_2,Length=0.017000000,Units=km
new line.RML10093395 bus1=BBT4508703.1.2.0,bus2=RML1060093395.1.2.0,Phases=2,Linecode=CABBTG05_4_2,Length=0.017000000,Units=km
new line.RML10093401 bus1=BBT4551102.1.0,bus2=RML1060093401.1.0,Phases=1,Linecode=CABBTG01_4_1,Length=0.017000000,Units=km
new line.RML10093408 bus1=BBT30338870.1.2.3.0,bus2=RML1060093408.1.2.3.0,Phases=3,Linecode=CABBTG06_4_3,Length=0.017000000,Units=km
new line.RML10093419 bus1=BBT26163769.1.2.3.0,bus2=RML1060093419.1.2.3.0,Phases=3,Linecode=CABBTG06_4_3,Length=0.017000000,Units=km
new line.RML10093429 bus1=BBT51670201.1.2.3.0,bus2=RML1060093429.1.2.3.0,Phases=3,Linecode=CABBTG06_4_3,Length=0.017000000,Units=km
new line.RML10093441 bus1=BBT2240241.1.2.0,bus2=RML1060093441.1.2.0,Phases=2,Linecode=CABBTG05_4_2,Length=0.017000000,Units=km
new line.RML10093460 bus1=BBT29789636.1.2.3.0,bus2=RML1060093460.1.2.3.0,Phases=3,Linecode=CABBTG06_4_3,Length=0.017000000,Units=km
new line.RML10099643 bus1=BBT2959911.1.0,bus2=RML1060099643.1.0,Phases=1,Linecode=CABBTG01_4_1,Length=0.017000000,Units=km
new line.RML10102955 bus1=BBT148642045.1.0,bus2=RML1060102955.1.0,Phases=1,Linecode=CABBTG01_4_1,Length=0.017000000,Units=km
new line.RML10105261 bus1=BBT1093284.2.0,bus2=RML1060105261.2.0,Phases=1,Linecode=CABBTG01_4_1,Length=0.017000000,Units=km
new line.RML10113655 bus1=BBT93889546.1.2.3.0,bus2=RML1060113655.1.2.3.0,Phases=3,Linecode=CABBTG06_4_3,Length=0.017000000,Units=km
new line.RML10114891 bus1=BBT84205865.2.0,bus2=RML1060114891.2.0,Phases=1,Linecode=CABBTG02_4_1,Length=0.017000000,Units=km
new line.RML10117198 bus1=BBT104174177.1.2.0,bus2=RML1060117198.1.2.0,Phases=2,Linecode=CABBTG05_4_2,Length=0.017000000,Units=km
new line.RML10117218 bus1=BBT104165728.1.0,bus2=RML1060117218.1.0,Phases=1,Linecode=CABBTG01_4_1,Length=0.017000000,Units=km
new line.RML10122596 bus1=BBT104164195.2.3.0,bus2=RML1060122596.2.3.0,Phases=2,Linecode=CABBTG05_4_2,Length=0.006000000,Units=km
new line.RML10122799 bus1=BBT994528.1.0,bus2=RML1060122799.1.0,Phases=1,Linecode=CABBTG02_4_1,Length=0.012000000,Units=km
new line.RML10123914 bus1=BBT1364415.1.2.3.0,bus2=RML1060123914.1.2.3.0,Phases=3,Linecode=CABBTG06_4_3,Length=0.017000000,Units=km
new line.RML10123943 bus1=BBT104165301.1.2.0,bus2=RML1060123943.1.2.0,Phases=2,Linecode=CABBTG05_4_2,Length=0.020000000,Units=km
new line.RML10124528 bus1=BBT1093872.1.0,bus2=RML1060124528.1.0,Phases=1,Linecode=CABBTG02_4_1,Length=0.006000000,Units=km
new line.RML10124600 bus1=BBT991994.1.3.0,bus2=RML1060124600.1.3.0,Phases=2,Linecode=CABBTG05_4_2,Length=0.017000000,Units=km
new line.RML10124975 bus1=BBT1091128.3.0,bus2=RML1060124975.3.0,Phases=1,Linecode=CABBTG01_4_1,Length=0.017000000,Units=km
new line.RML10126600 bus1=BBT1094628.1.2.3.0,bus2=RML1060126600.1.2.3.0,Phases=3,Linecode=CABBTG06_4_3,Length=0.017000000,Units=km
new line.RML10128713 bus1=BBT1097015.1.0,bus2=RML1060128713.1.0,Phases=1,Linecode=CABBTG01_4_1,Length=0.017000000,Units=km
new line.RML10128843 bus1=BBT1091730.1.2.0,bus2=RML1060128843.1.2.0,Phases=2,Linecode=CABBTG05_4_2,Length=0.009000000,Units=km
new line.RML10142969 bus1=BBT149313331.1.2.0,bus2=RML1060142969.1.2.0,Phases=2,Linecode=CABBTG05_4_2,Length=0.011000000,Units=km
new line.RML10145415 bus1=BBT1091674.1.2.3.0,bus2=RML1060145415.1.2.3.0,Phases=3,Linecode=CABBT815_4_3,Length=0.013000000,Units=km
new line.RML10146367 bus1=BBT1150796.1.0,bus2=RML1060146367.1.0,Phases=1,Linecode=CABBTG01_4_1,Length=0.017000000,Units=km
new line.RML10146371 bus1=BBT1090652.1.0,bus2=RML1060146371.1.0,Phases=1,Linecode=CABBTG01_4_1,Length=0.017000000,Units=km
new line.RML10148236 bus1=BBT1099143.1.0,bus2=RML1060148236.1.0,Phases=1,Linecode=CABBTG02_4_1,Length=0.017000000,Units=km
new line.RML10148245 bus1=BBT1099143.1.2.0,bus2=RML1060148245.1.2.0,Phases=2,Linecode=CABBTG05_4_2,Length=0.017000000,Units=km
new line.RML10148249 bus1=BBT1099143.1.2.0,bus2=RML1060148249.1.2.0,Phases=2,Linecode=CABBTG05_4_2,Length=0.017000000,Units=km
new line.RML10160196 bus1=BBT104164237.2.0,bus2=RML1060160196.2.0,Phases=1,Linecode=CABBTG01_4_1,Length=0.020000000,Units=km
new line.RML10160244 bus1=BBT93912051.1.2.0,bus2=RML1060160244.1.2.0,Phases=2,Linecode=CABBTG05_4_2,Length=0.010000000,Units=km
new line.RML10166196 bus1=BBT1150768.1.3.0,bus2=RML1060166196.1.3.0,Phases=2,Linecode=CABBTG05_4_2,Length=0.011000000,Units=km
new line.RML10166604 bus1=BBT117621954.1.2.0,bus2=RML1060166604.1.2.0,Phases=2,Linecode=CABBTG05_4_2,Length=0.017000000,Units=km
new line.RML10168844 bus1=BBT1376350.1.3.0,bus2=RML1060168844.1.3.0,Phases=2,Linecode=CABBTG05_4_2,Length=0.017000000,Units=km
new line.RML10169056 bus1=BBT1091555.1.3.0,bus2=RML1060169056.1.3.0,Phases=2,Linecode=CABBTG05_4_2,Length=0.017000000,Units=km
new line.RML10169112 bus1=BBT992512.2.3.0,bus2=RML1060169112.2.3.0,Phases=2,Linecode=CABBTG05_4_2,Length=0.017000000,Units=km
new line.RML10179279 bus1=BBT1095125.1.2.0,bus2=RML1060179279.1.2.0,Phases=2,Linecode=CABBTG05_4_2,Length=0.025000000,Units=km
new line.RML10179283 bus1=BBT1097442.1.2.0,bus2=RML1060179283.1.2.0,Phases=2,Linecode=CABBTG13_4_2,Length=0.017000000,Units=km
new line.RML10179286 bus1=BBT1097421.1.2.3.0,bus2=RML1060179286.1.2.3.0,Phases=3,Linecode=CABBTG10_4_3,Length=0.017000000,Units=km
new line.RML10179295 bus1=BBT1098611.1.2.3.0,bus2=RML1060179295.1.2.3.0,Phases=3,Linecode=CABBTG10_4_3,Length=0.017000000,Units=km
new line.RML10185476 bus1=BBT150264120.1.2.3.0,bus2=RML1060185476.1.2.3.0,Phases=3,Linecode=CABBTG08_4_3,Length=0.017000000,Units=km
new line.RML10185493 bus1=BBT150264120.1.2.3.0,bus2=RML1060185493.1.2.3.0,Phases=3,Linecode=CABBTG12_4_3,Length=0.017000000,Units=km
new line.RML10187271 bus1=BBT993849.1.3.0,bus2=RML1060187271.1.3.0,Phases=2,Linecode=CABBTG05_4_2,Length=0.017000000,Units=km
new line.RML10187820 bus1=BBT1097015.1.2.0,bus2=RML1060187820.1.2.0,Phases=2,Linecode=CABBT811_4_2,Length=0.017000000,Units=km
new line.RML10187844 bus1=BBT2240045.1.2.0,bus2=RML1060187844.1.2.0,Phases=2,Linecode=CABBTG05_4_2,Length=0.017000000,Units=km
new line.RML10188368 bus1=BBT1097323.2.0,bus2=RML1060188368.2.0,Phases=1,Linecode=CABBTG02_4_1,Length=0.017000000,Units=km
new line.RML10192609 bus1=BBT1096973.1.2.0,bus2=RML1060192609.1.2.0,Phases=2,Linecode=CABBTG05_4_2,Length=0.017000000,Units=km
new line.RML10192615 bus1=BBT4435448.1.2.0,bus2=RML1060192615.1.2.0,Phases=2,Linecode=CABBTG05_4_2,Length=0.017000000,Units=km
new line.RML10192617 bus1=BBT4435448.1.2.0,bus2=RML1060192617.1.2.0,Phases=2,Linecode=CABBTG05_4_2,Length=0.017000000,Units=km
new line.RML10192622 bus1=BBT4435448.1.2.0,bus2=RML1060192622.1.2.0,Phases=2,Linecode=CABBTG05_4_2,Length=0.017000000,Units=km
new line.RML10192647 bus1=BBT4435469.1.2.0,bus2=RML1060192647.1.2.0,Phases=2,Linecode=CABBTG05_4_2,Length=0.017000000,Units=km
new line.RML10192652 bus1=BBT4435469.1.2.0,bus2=RML1060192652.1.2.0,Phases=2,Linecode=CABBTG05_4_2,Length=0.017000000,Units=km
new line.RML10192655 bus1=BBT4435469.1.2.0,bus2=RML1060192655.1.2.0,Phases=2,Linecode=CABBTG05_4_2,Length=0.017000000,Units=km
new line.RML10192661 bus1=BBT1093732.2.0,bus2=RML1060192661.2.0,Phases=1,Linecode=CABBTG02_4_1,Length=0.017000000,Units=km
new line.RML10192668 bus1=BBT1099157.2.0,bus2=RML1060192668.2.0,Phases=1,Linecode=CABBTG02_4_1,Length=0.017000000,Units=km
new line.RML10213709 bus1=BBT149986384.1.2.0,bus2=RML1060213709.1.2.0,Phases=2,Linecode=CABBTG05_4_2,Length=0.016000000,Units=km
new line.RML10218834 bus1=BBT992974.2.0,bus2=RML1060218834.2.0,Phases=1,Linecode=CABBTG02_4_1,Length=0.017000000,Units=km
new line.RML10219551 bus1=BBT1098891.3.0,bus2=RML1060219551.3.0,Phases=1,Linecode=CABBTG02_4_1,Length=0.017000000,Units=km
new line.RML10219809 bus1=BBT104174170.1.0,bus2=RML1060219809.1.0,Phases=1,Linecode=CABBTG02_4_1,Length=0.017000000,Units=km
new line.RML10219813 bus1=BBT2179243.2.3.0,bus2=RML1060219813.2.3.0,Phases=2,Linecode=CABBTG05_4_2,Length=0.017000000,Units=km
new line.RML10219817 bus1=BBT1092080.1.2.0,bus2=RML1060219817.1.2.0,Phases=2,Linecode=CABBTG05_4_2,Length=0.017000000,Units=km
new line.RML10219952 bus1=BBT117265731.1.3.0,bus2=RML1060219952.1.3.0,Phases=2,Linecode=CABBTG05_4_2,Length=0.017000000,Units=km
new line.RML10220116 bus1=BBT1093095.1.0,bus2=RML1060220116.1.0,Phases=1,Linecode=CABBTG01_4_1,Length=0.017000000,Units=km
new line.RML10222220 bus1=BBT1099171.1.0,bus2=RML1060222220.1.0,Phases=1,Linecode=CABBTG01_4_1,Length=0.017000000,Units=km
new line.RML10224136 bus1=BBT4455958.1.2.0,bus2=RML1060224136.1.2.0,Phases=2,Linecode=CABBTG05_4_2,Length=0.017000000,Units=km
new line.RML10225296 bus1=BBT104165308.1.2.0,bus2=RML1060225296.1.2.0,Phases=2,Linecode=CABBTG05_4_2,Length=0.017000000,Units=km
new line.RML10227442 bus1=BBT149790226.1.2.0,bus2=RML1060227442.1.2.0,Phases=2,Linecode=CABBTG05_4_2,Length=0.017000000,Units=km
new line.RML10233712 bus1=BBT104164405.1.2.0,bus2=RML1060233712.1.2.0,Phases=2,Linecode=CABBTG05_4_2,Length=0.017000000,Units=km
new line.RML10234291 bus1=BBT993688.1.0,bus2=RML1060234291.1.0,Phases=1,Linecode=CABBT811_4_1,Length=0.017000000,Units=km
new line.RML10240926 bus1=BBT993870.1.2.0,bus2=RML1060240926.1.2.0,Phases=2,Linecode=CABBTG05_4_2,Length=0.017000000,Units=km
new line.RML10241046 bus1=BBT117377731.1.2.0,bus2=RML1060241046.1.2.0,Phases=2,Linecode=CABBT811_4_2,Length=0.017000000,Units=km
new line.RML10243588 bus1=BBT4455958.1.2.0,bus2=RML1060243588.1.2.0,Phases=2,Linecode=CABBTG05_4_2,Length=0.017000000,Units=km
new line.RML10244563 bus1=BBT105143243.1.2.0,bus2=RML1060244563.1.2.0,Phases=2,Linecode=CABBTG05_4_2,Length=0.017000000,Units=km
new line.RML10259135 bus1=BBT2179362.1.0,bus2=RML1060259135.1.0,Phases=1,Linecode=CABBTG01_4_1,Length=0.017000000,Units=km
new line.RML10263014 bus1=BBT117377731.1.2.3.0,bus2=RML1060263014.1.2.3.0,Phases=3,Linecode=CABBTG06_4_3,Length=0.017000000,Units=km
new line.RML10263784 bus1=BBT104164636.1.2.0,bus2=RML1060263784.1.2.0,Phases=2,Linecode=CABBTG05_4_2,Length=0.017000000,Units=km
new line.RML10278611 bus1=BBT93900473.1.2.3.0,bus2=RML1060278611.1.2.3.0,Phases=3,Linecode=CABBTG12_4_3,Length=0.017000000,Units=km
new line.RML10281103 bus1=BBT2959939.1.2.0,bus2=RML1060281103.1.2.0,Phases=2,Linecode=CABBTG05_4_2,Length=0.017000000,Units=km
new line.RML10281865 bus1=BBT104174163.1.2.3.0,bus2=RML1060281865.1.2.3.0,Phases=3,Linecode=CABBTG06_4_3,Length=0.017000000,Units=km
new line.RML10282129 bus1=BBT104174261.1.2.3.0,bus2=RML1060282129.1.2.3.0,Phases=3,Linecode=CABBTG07_4_3,Length=0.017000000,Units=km
new line.RML10282309 bus1=BBT1090932.1.0,bus2=RML1060282309.1.0,Phases=1,Linecode=CABBTG02_4_1,Length=0.017000000,Units=km
new line.RML10282335 bus1=BBT1097519.1.0,bus2=RML1060282335.1.0,Phases=1,Linecode=CABBTG02_4_1,Length=0.017000000,Units=km
new line.RML10282438 bus1=BBT1090421.1.2.0,bus2=RML1060282438.1.2.0,Phases=2,Linecode=CABBT811_4_2,Length=0.017000000,Units=km
new line.RML10282761 bus1=BBT2179999.1.2.3.0,bus2=RML1060282761.1.2.3.0,Phases=3,Linecode=CABBTG06_4_3,Length=0.017000000,Units=km
new line.RML10282803 bus1=BBT117634015.1.2.0,bus2=RML1060282803.1.2.0,Phases=2,Linecode=CABBTG05_4_2,Length=0.017000000,Units=km
new line.RML10284375 bus1=BBT1090701.1.2.3.0,bus2=RML1060284375.1.2.3.0,Phases=3,Linecode=CABBTG06_4_3,Length=0.017000000,Units=km
new line.RML10297406 bus1=BBT992834.1.2.3.0,bus2=RML1060297406.1.2.3.0,Phases=3,Linecode=CABBT815_4_3,Length=0.017000000,Units=km
new line.RML10301498 bus1=BBT117265479.1.2.0,bus2=RML1060301498.1.2.0,Phases=2,Linecode=CABBTG05_4_2,Length=0.017000000,Units=km
new line.RML10301519 bus1=BBT104164412.1.2.0,bus2=RML1060301519.1.2.0,Phases=2,Linecode=CABBTG05_4_2,Length=0.017000000,Units=km
new line.RML10301642 bus1=BBT1090988.3.0,bus2=RML1060301642.3.0,Phases=1,Linecode=CABBTG02_4_1,Length=0.017000000,Units=km
new line.RML10302606 bus1=BBT104164629.1.2.0,bus2=RML1060302606.1.2.0,Phases=2,Linecode=CABBTG05_4_2,Length=0.017000000,Units=km
new line.RML10304895 bus1=BBT1094698.1.2.3.0,bus2=RML1060304895.1.2.3.0,Phases=3,Linecode=CABBT815_4_3,Length=0.017000000,Units=km
new line.RML10308599 bus1=BBT1090932.1.2.0,bus2=RML1060308599.1.2.0,Phases=2,Linecode=CABBTG05_4_2,Length=0.017000000,Units=km
new line.RML10308628 bus1=BBT1091688.1.3.0,bus2=RML1060308628.1.3.0,Phases=2,Linecode=CABBTG05_4_2,Length=0.017000000,Units=km
new line.RML10308634 bus1=BBT1097323.1.2.0,bus2=RML1060308634.1.2.0,Phases=2,Linecode=CABBTG05_4_2,Length=0.017000000,Units=km
new line.RML10308648 bus1=BBT1095692.1.3.0,bus2=RML1060308648.1.3.0,Phases=2,Linecode=CABBTG05_4_2,Length=0.012000000,Units=km
new line.RML10308655 bus1=BBT1095776.1.2.0,bus2=RML1060308655.1.2.0,Phases=2,Linecode=CABBTG05_4_2,Length=0.017000000,Units=km
new line.RML10313707 bus1=BBT4290058.1.2.0,bus2=RML1060313707.1.2.0,Phases=2,Linecode=CABBTG05_4_2,Length=0.017000000,Units=km
new line.RML10317510 bus1=BBT1364457.3.0,bus2=RML1060317510.3.0,Phases=1,Linecode=CABBTG02_4_1,Length=0.017000000,Units=km
new line.RML10317818 bus1=BBT1093662.1.3.0,bus2=RML1060317818.1.3.0,Phases=2,Linecode=CABBT811_4_2,Length=0.017000000,Units=km
new line.RML10318872 bus1=BBT104159183.1.2.0,bus2=RML1060318872.1.2.0,Phases=2,Linecode=CABBTG05_4_2,Length=0.017000000,Units=km
new line.RML10324221 bus1=BBT88565773.1.2.0,bus2=RML1060324221.1.2.0,Phases=2,Linecode=CABBTG05_4_2,Length=0.017000000,Units=km
new line.RML10324520 bus1=BBT1092990.2.0,bus2=RML1060324520.2.0,Phases=1,Linecode=CABBTG01_4_1,Length=0.017000000,Units=km
new line.RML10324543 bus1=BBT1091555.2.0,bus2=RML1060324543.2.0,Phases=1,Linecode=CABBTG01_4_1,Length=0.017000000,Units=km
new line.RML10324605 bus1=BBT2239905.1.2.0,bus2=RML1060324605.1.2.0,Phases=2,Linecode=CABBTG04_4_2,Length=0.017000000,Units=km
new line.RML10333430 bus1=BBT993856.1.3.0,bus2=RML1060333430.1.3.0,Phases=2,Linecode=CABBTG05_4_2,Length=0.017000000,Units=km
new line.RML10336215 bus1=BBT1093732.1.0,bus2=RML1060336215.1.0,Phases=1,Linecode=CABBTG01_4_1,Length=0.017000000,Units=km
new line.RML10336217 bus1=BBT1090918.3.0,bus2=RML1060336217.3.0,Phases=1,Linecode=CABBTG01_4_1,Length=0.017000000,Units=km
new line.RML10336220 bus1=BBT1092325.2.0,bus2=RML1060336220.2.0,Phases=1,Linecode=CABBTG01_4_1,Length=0.017000000,Units=km
new line.RML10336222 bus1=BBT1091660.1.0,bus2=RML1060336222.1.0,Phases=1,Linecode=CABBTG02_4_1,Length=0.017000000,Units=km
new line.RML10336225 bus1=BBT93899507.1.2.0,bus2=RML1060336225.1.2.0,Phases=2,Linecode=CABBTG13_4_2,Length=0.017000000,Units=km
new line.RML10336226 bus1=BBT992575.1.0,bus2=RML1060336226.1.0,Phases=1,Linecode=CABBTG03_4_1,Length=0.017000000,Units=km
new line.RML10336229 bus1=BBT2180020.1.0,bus2=RML1060336229.1.0,Phases=1,Linecode=CABBTG01_4_1,Length=0.017000000,Units=km
new line.RML10336234 bus1=BBT78053852.1.2.3.0,bus2=RML1060336234.1.2.3.0,Phases=3,Linecode=CABBTG07_4_3,Length=0.017000000,Units=km
new line.RML10336239 bus1=BBT117377087.1.2.0,bus2=RML1060336239.1.2.0,Phases=2,Linecode=CABBTG05_4_2,Length=0.017000000,Units=km
new line.RML10336242 bus1=BBT117377087.1.2.0,bus2=RML1060336242.1.2.0,Phases=2,Linecode=CABBTG05_4_2,Length=0.017000000,Units=km
new line.RML10336247 bus1=BBT1099199.1.0,bus2=RML1060336247.1.0,Phases=1,Linecode=CABBTG02_4_1,Length=0.017000000,Units=km
new line.RML10336250 bus1=BBT1099199.2.0,bus2=RML1060336250.2.0,Phases=1,Linecode=CABBTG02_4_1,Length=0.017000000,Units=km
new line.RML10336252 bus1=BBT4435476.2.0,bus2=RML1060336252.2.0,Phases=1,Linecode=CABBTG02_4_1,Length=0.017000000,Units=km
new line.RML10336257 bus1=BBT4435469.1.2.0,bus2=RML1060336257.1.2.0,Phases=2,Linecode=CABBTG05_4_2,Length=0.017000000,Units=km
new line.RML10336258 bus1=BBT4435462.1.0,bus2=RML1060336258.1.0,Phases=1,Linecode=CABBTG02_4_1,Length=0.012000000,Units=km
new line.RML10336261 bus1=BBT4435448.1.0,bus2=RML1060336261.1.0,Phases=1,Linecode=CABBTG01_4_1,Length=0.017000000,Units=km
new line.RML10336263 bus1=BBT4435448.1.0,bus2=RML1060336263.1.0,Phases=1,Linecode=CABBTG02_4_1,Length=0.017000000,Units=km
new line.RML10336267 bus1=BBT4435441.2.0,bus2=RML1060336267.2.0,Phases=1,Linecode=CABBTG02_4_1,Length=0.017000000,Units=km
new line.RML10336269 bus1=BBT4435441.2.0,bus2=RML1060336269.2.0,Phases=1,Linecode=CABBTG02_4_1,Length=0.017000000,Units=km
new line.RML10336270 bus1=BBT4435420.1.0,bus2=RML1060336270.1.0,Phases=1,Linecode=CABBTG02_4_1,Length=0.017000000,Units=km
new line.RML10336273 bus1=BBT4435420.2.0,bus2=RML1060336273.2.0,Phases=1,Linecode=CABBTG02_4_1,Length=0.017000000,Units=km
new line.RML10336274 bus1=BBT4435420.2.0,bus2=RML1060336274.2.0,Phases=1,Linecode=CABBTG02_4_1,Length=0.017000000,Units=km
new line.RML10336275 bus1=BBT4435420.1.2.0,bus2=RML1060336275.1.2.0,Phases=2,Linecode=CABBTG05_4_2,Length=0.017000000,Units=km
new line.RML10336277 bus1=BBT4435427.1.0,bus2=RML1060336277.1.0,Phases=1,Linecode=CABBTG02_4_1,Length=0.017000000,Units=km
new line.RML10336279 bus1=BBT4435427.2.0,bus2=RML1060336279.2.0,Phases=1,Linecode=CABBTG02_4_1,Length=0.017000000,Units=km
new line.RML10336280 bus1=BBT4435427.1.0,bus2=RML1060336280.1.0,Phases=1,Linecode=CABBTG02_4_1,Length=0.017000000,Units=km
new line.RML10336281 bus1=BBT1099171.2.0,bus2=RML1060336281.2.0,Phases=1,Linecode=CABBTG02_4_1,Length=0.017000000,Units=km
new line.RML10336282 bus1=BBT1099171.1.0,bus2=RML1060336282.1.0,Phases=1,Linecode=CABBTG02_4_1,Length=0.017000000,Units=km
new line.RML10336283 bus1=BBT1099164.1.0,bus2=RML1060336283.1.0,Phases=1,Linecode=CABBTG02_4_1,Length=0.017000000,Units=km
new line.RML10336284 bus1=BBT1099164.2.0,bus2=RML1060336284.2.0,Phases=1,Linecode=CABBTG02_4_1,Length=0.017000000,Units=km
new line.RML10336286 bus1=BBT1099164.1.0,bus2=RML1060336286.1.0,Phases=1,Linecode=CABBTG02_4_1,Length=0.017000000,Units=km
new line.RML10336287 bus1=BBT1099150.2.0,bus2=RML1060336287.2.0,Phases=1,Linecode=CABBTG01_4_1,Length=0.017000000,Units=km
new line.RML10336289 bus1=BBT104165574.1.0,bus2=RML1060336289.1.0,Phases=1,Linecode=CABBTG02_4_1,Length=0.017000000,Units=km
new line.RML10336292 bus1=BBT104165308.1.0,bus2=RML1060336292.1.0,Phases=1,Linecode=CABBTG01_4_1,Length=0.017000000,Units=km
new line.RML10336294 bus1=BBT104164405.1.2.0,bus2=RML1060336294.1.2.0,Phases=2,Linecode=CABBTG05_4_2,Length=0.017000000,Units=km
new line.RML10336297 bus1=BBT104164237.1.2.0,bus2=RML1060336297.1.2.0,Phases=2,Linecode=CABBTG05_4_2,Length=0.017000000,Units=km
new line.RML10336298 bus1=BBT104164237.1.2.0,bus2=RML1060336298.1.2.0,Phases=2,Linecode=CABBTG05_4_2,Length=0.017000000,Units=km
new line.RML10336301 bus1=BBT104164237.1.2.0,bus2=RML1060336301.1.2.0,Phases=2,Linecode=CABBTG05_4_2,Length=0.017000000,Units=km
new line.RML10336302 bus1=BBT117621961.1.2.0,bus2=RML1060336302.1.2.0,Phases=2,Linecode=CABBTG05_4_2,Length=0.017000000,Units=km
new line.RML10336951 bus1=BBT1097897.3.0,bus2=RML1060336951.3.0,Phases=1,Linecode=CABBTG02_4_1,Length=0.017000000,Units=km
new line.RML10337420 bus1=BBT1095230.2.3.0,bus2=RML1060337420.2.3.0,Phases=2,Linecode=CABBTG05_4_2,Length=0.017000000,Units=km
new line.RML10339634 bus1=BBT993135.1.2.0,bus2=RML1060339634.1.2.0,Phases=2,Linecode=CABBTG05_4_2,Length=0.016000000,Units=km
new line.RML10339709 bus1=BBT93864381.1.2.0,bus2=RML1060339709.1.2.0,Phases=2,Linecode=CABBTG05_4_2,Length=0.017000000,Units=km
new line.RML10339885 bus1=BBT1094684.1.0,bus2=RML1060339885.1.0,Phases=1,Linecode=CABBTG02_4_1,Length=0.017000000,Units=km
new line.RML10339894 bus1=BBT993485.1.2.0,bus2=RML1060339894.1.2.0,Phases=2,Linecode=CABBTG05_4_2,Length=0.017000000,Units=km
new line.RML10340066 bus1=BBT993856.1.3.0,bus2=RML1060340066.1.3.0,Phases=2,Linecode=CABBTG05_4_2,Length=0.017000000,Units=km
new line.RML10340096 bus1=BBT1037270.1.3.0,bus2=RML1060340096.1.3.0,Phases=2,Linecode=CABBTG05_4_2,Length=0.017000000,Units=km
new line.RML10340102 bus1=BBT117621961.1.2.0,bus2=RML1060340102.1.2.0,Phases=2,Linecode=CABBTG05_4_2,Length=0.017000000,Units=km
new line.RML10340128 bus1=BBT93864325.2.3.0,bus2=RML1060340128.2.3.0,Phases=2,Linecode=CABBTG05_4_2,Length=0.017000000,Units=km
new line.RML10342864 bus1=BBT2411006.1.2.0,bus2=RML1060342864.1.2.0,Phases=2,Linecode=CABBTG05_4_2,Length=0.017000000,Units=km
new line.RML10343116 bus1=BBT93864423.2.3.0,bus2=RML1060343116.2.3.0,Phases=2,Linecode=CABBTG05_4_2,Length=0.017000000,Units=km
new line.RML10343191 bus1=BBT117377087.2.3.0,bus2=RML1060343191.2.3.0,Phases=2,Linecode=CABBTG05_4_2,Length=0.017000000,Units=km
new line.RML10343293 bus1=BBT1091114.1.3.0,bus2=RML1060343293.1.3.0,Phases=2,Linecode=CABBTG05_4_2,Length=0.017000000,Units=km
new line.RML10344006 bus1=BBT1091968.1.2.0,bus2=RML1060344006.1.2.0,Phases=2,Linecode=CABBTG05_4_2,Length=0.017000000,Units=km
new line.RML10346700 bus1=BBT1096420.2.0,bus2=RML1060346700.2.0,Phases=1,Linecode=CABBTG02_4_1,Length=0.017000000,Units=km
new line.RML10355193 bus1=BBT2179992.1.2.0,bus2=RML1060355193.1.2.0,Phases=2,Linecode=CABBTG05_4_2,Length=0.017000000,Units=km
new line.RML10355211 bus1=BBT1093109.2.3.0,bus2=RML1060355211.2.3.0,Phases=2,Linecode=CABBTG05_4_2,Length=0.017000000,Units=km
new line.RML10355311 bus1=BBT2179999.1.3.0,bus2=RML1060355311.1.3.0,Phases=2,Linecode=CABBTG05_4_2,Length=0.017000000,Units=km
new line.RML10359475 bus1=BBT104174170.1.2.0,bus2=RML1060359475.1.2.0,Phases=2,Linecode=CABBTG05_4_2,Length=0.017000000,Units=km
new line.RML10359552 bus1=BBT1093249.1.3.0,bus2=RML1060359552.1.3.0,Phases=2,Linecode=CABBTG05_4_2,Length=0.017000000,Units=km
new line.RML10363514 bus1=BBT1396104.1.2.0,bus2=RML1060363514.1.2.0,Phases=2,Linecode=CABBT811_4_2,Length=0.017000000,Units=km
new line.RML10367601 bus1=BBT1095748.1.2.0,bus2=RML1060367601.1.2.0,Phases=2,Linecode=CABBTG05_4_2,Length=0.017000000,Units=km
new line.RML10368824 bus1=BBT1090757.1.3.0,bus2=RML1060368824.1.3.0,Phases=2,Linecode=CABBTG05_4_2,Length=0.017000000,Units=km
new line.RML10369836 bus1=BBT1096525.1.2.0,bus2=RML1060369836.1.2.0,Phases=2,Linecode=CABBTG05_4_2,Length=0.017000000,Units=km
new line.RML10369841 bus1=BBT1098884.1.2.3.0,bus2=RML1060369841.1.2.3.0,Phases=3,Linecode=CABBTG06_4_3,Length=0.017000000,Units=km
new line.RML10369856 bus1=BBT4435455.1.2.0,bus2=RML1060369856.1.2.0,Phases=2,Linecode=CABBTG05_4_2,Length=0.017000000,Units=km
new line.RML10369865 bus1=BBT4435441.1.2.0,bus2=RML1060369865.1.2.0,Phases=2,Linecode=CABBTG05_4_2,Length=0.017000000,Units=km
new line.RML10369870 bus1=BBT4435476.1.2.0,bus2=RML1060369870.1.2.0,Phases=2,Linecode=CABBTG05_4_2,Length=0.017000000,Units=km
new line.RML10369929 bus1=BBT1097330.1.2.0,bus2=RML1060369929.1.2.0,Phases=2,Linecode=CABBTG05_4_2,Length=0.017000000,Units=km
new line.RML10370009 bus1=BBT1090064.3.0,bus2=RML1060370009.3.0,Phases=1,Linecode=CABBTG02_4_1,Length=0.017000000,Units=km
new line.RML10370021 bus1=BBT991231.2.3.0,bus2=RML1060370021.2.3.0,Phases=2,Linecode=CABBTG05_4_2,Length=0.017000000,Units=km
new line.RML10370043 bus1=BBT117621961.1.3.0,bus2=RML1060370043.1.3.0,Phases=2,Linecode=CABBTG05_4_2,Length=0.017000000,Units=km
new line.RML10370086 bus1=BBT1095734.1.3.0,bus2=RML1060370086.1.3.0,Phases=2,Linecode=CABBTG05_4_2,Length=0.017000000,Units=km
new line.RML10370125 bus1=BBT104164405.1.3.0,bus2=RML1060370125.1.3.0,Phases=2,Linecode=CABBTG05_4_2,Length=0.017000000,Units=km
new line.RML10370565 bus1=BBT993842.2.3.0,bus2=RML1060370565.2.3.0,Phases=2,Linecode=CABBTG05_4_2,Length=0.017000000,Units=km
new line.RML10377500 bus1=BBT4290051.1.2.0,bus2=RML1060377500.1.2.0,Phases=2,Linecode=CABBTG05_4_2,Length=0.017000000,Units=km
new line.RML10382614 bus1=BBT117620288.1.2.0,bus2=RML1060382614.1.2.0,Phases=2,Linecode=CABBTG05_4_2,Length=0.017000000,Units=km
new line.RML10382928 bus1=BBT117265731.1.2.0,bus2=RML1060382928.1.2.0,Phases=2,Linecode=CABBTG05_4_2,Length=0.017000000,Units=km
new line.RML10385177 bus1=BBT1376350.1.2.0,bus2=RML1060385177.1.2.0,Phases=2,Linecode=CABBTG05_4_2,Length=0.017000000,Units=km
new line.RML10385178 bus1=BBT117269084.1.2.0,bus2=RML1060385178.1.2.0,Phases=2,Linecode=CABBTG05_4_2,Length=0.017000000,Units=km
new line.RML10387974 bus1=BBT84214573.2.0,bus2=RML1060387974.2.0,Phases=1,Linecode=CABBTG02_4_1,Length=0.017000000,Units=km
new line.RML10388026 bus1=BBT93910994.2.3.0,bus2=RML1060388026.2.3.0,Phases=2,Linecode=CABBTG05_4_2,Length=0.017000000,Units=km
new line.RML10389319 bus1=BBT991280.1.3.0,bus2=RML1060389319.1.3.0,Phases=2,Linecode=CABBTG05_4_2,Length=0.017000000,Units=km
new line.RML10396791 bus1=BBT1092619.1.0,bus2=RML1060396791.1.0,Phases=1,Linecode=CABBTG02_4_1,Length=0.017000000,Units=km
new line.RML10397202 bus1=BBT2411006.2.0,bus2=RML1060397202.2.0,Phases=1,Linecode=CABBTG02_4_1,Length=0.017000000,Units=km
new line.RML10397352 bus1=BBT117377731.1.2.0,bus2=RML1060397352.1.2.0,Phases=2,Linecode=CABBTG05_4_2,Length=0.017000000,Units=km
new line.RML10397641 bus1=BBT117377731.1.2.0,bus2=RML1060397641.1.2.0,Phases=2,Linecode=CABBTG05_4_2,Length=0.017000000,Units=km
new line.RML10397774 bus1=BBT1097932.2.0,bus2=RML1060397774.2.0,Phases=1,Linecode=CABBTG02_4_1,Length=0.017000000,Units=km
new line.RML10398988 bus1=BBT1092024.2.0,bus2=RML1060398988.2.0,Phases=1,Linecode=CABBTG02_4_1,Length=0.017000000,Units=km