new line.11992163 bus1=BBT3083006.1.2.0,bus2=BBT3083013.1.2.0,Phases=2,Linecode=BT316_BT316_7_2_1,Length=0.000500000,Units=km
new line.12002964 bus1=BBT2857844.1.2.0,bus2=BBT2857851.1.2.0,Phases=2,Linecode=BT316_BT316_7_2_1,Length=0.000500000,Units=km
new line.12004238 bus1=BBT2858117.1.2.0,bus2=BBT2858124.1.2.0,Phases=2,Linecode=BT316_BT316_7_2_1,Length=0.000500000,Units=km
new line.12004266 bus1=BBT2858187.1.2.0,bus2=BBT2858194.1.2.0,Phases=2,Linecode=BT316_BT316_7_2_1,Length=0.000500000,Units=km
new line.12455752 bus1=BBT2951630.1.2.0,bus2=BBT3046872.1.2.0,Phases=2,Linecode=BT107_BT107_7_2_1,Length=0.042054000,Units=km
new line.12722788 bus1=BBT3170051.1.2.0,bus2=BBT3170058.1.2.0,Phases=2,Linecode=BT316_BT316_7_2_1,Length=0.000500000,Units=km
new line.12863950 bus1=BBT3076510.1.2.0,bus2=BBT3076517.1.2.0,Phases=2,Linecode=BT316_BT316_7_2_1,Length=0.000500000,Units=km
new line.12866484 bus1=BBT3077819.1.2.0,bus2=BBT3077826.1.2.0,Phases=2,Linecode=BT316_BT316_7_2_1,Length=0.000500000,Units=km
new line.12876907 bus1=BBT3083034.1.2.0,bus2=BBT3083041.1.2.0,Phases=2,Linecode=BT316_BT316_7_2_1,Length=0.000500000,Units=km
new line.12888506 bus1=BBT3088571.1.2.0,bus2=BBT3088578.1.2.0,Phases=2,Linecode=BT316_BT316_7_2_1,Length=0.000500000,Units=km
new line.12889668 bus1=BBT3089019.1.2.0,bus2=BBT3089026.1.2.0,Phases=2,Linecode=BT316_BT316_7_2_1,Length=0.000500000,Units=km
new line.12889815 bus1=BBT3089061.1.2.0,bus2=BBT3089068.1.2.0,Phases=2,Linecode=BT316_BT316_7_2_1,Length=0.000500000,Units=km
new line.12889955 bus1=BBT3089124.1.2.0,bus2=BBT3089131.1.2.0,Phases=2,Linecode=BT316_BT316_7_2_1,Length=0.000500000,Units=km
new line.12889983 bus1=BBT3089110.1.2.0,bus2=BBT3089117.1.2.0,Phases=2,Linecode=BT316_BT316_7_2_1,Length=0.000500000,Units=km
new line.12890018 bus1=BBT3089096.1.2.0,bus2=BBT3089103.1.2.0,Phases=2,Linecode=BT316_BT316_7_2_1,Length=0.000500000,Units=km
new line.13077296 bus1=BBT3244489.1.2.0,bus2=BBT3244496.1.2.0,Phases=2,Linecode=BT304_BT304_7_2_1,Length=0.000500000,Units=km
new line.13090610 bus1=BBT3267141.1.2.0,bus2=BBT3267148.1.2.0,Phases=2,Linecode=BT304_BT304_7_2_1,Length=0.000500000,Units=km
new line.13092717 bus1=BBT3269801.1.2.0,bus2=BBT3269808.1.2.0,Phases=2,Linecode=BT316_BT316_7_2_1,Length=0.000500000,Units=km
new line.13094495 bus1=BBT3271607.1.2.0,bus2=BBT3271614.1.2.0,Phases=2,Linecode=BT316_BT316_7_2_1,Length=0.000500000,Units=km
new line.13099542 bus1=BBT3275520.1.2.0,bus2=BBT3275527.1.2.0,Phases=2,Linecode=BT316_BT316_7_2_1,Length=0.000500000,Units=km
new line.13309465 bus1=BBT3514171.1.2.0,bus2=BBT3514178.1.2.0,Phases=2,Linecode=BT316_BT316_7_2_1,Length=0.000500000,Units=km
new line.13315499 bus1=BBT3520933.1.2.0,bus2=BBT3520940.1.2.0,Phases=2,Linecode=BT316_BT316_7_2_1,Length=0.000500000,Units=km
new line.13417748 bus1=BBT3893844.1.2.3.0,bus2=BBT3893851.1.2.3.0,Phases=3,Linecode=BT308_BT308_7_3_1,Length=0.000500000,Units=km
new line.13587036 bus1=BBT4435035.1.2.0,bus2=BBT1096427.1.2.0,Phases=2,Linecode=BT108_BT107_7_2_1,Length=0.024182000,Units=km
new line.13587078 bus1=BBT4435203.1.2.0,bus2=BBT1096413.1.2.0,Phases=2,Linecode=BT808_BT808_4_2_3,Length=0.034706000,Units=km
new line.13587085 bus1=BBT4435203.1.2.0,bus2=BBT4435462.1.2.0,Phases=2,Linecode=BT808_BT808_4_2_3,Length=0.020096000,Units=km
new line.13587106 bus1=BBT4435462.1.2.0,bus2=BBT4435469.1.2.0,Phases=2,Linecode=BT808_BT808_4_2_3,Length=0.040845000,Units=km
new line.13587218 bus1=BBT4435294.1.2.0,bus2=BBT1096406.1.2.0,Phases=2,Linecode=BT808_BT808_4_2_3,Length=0.029405000,Units=km
new line.13587246 bus1=BBT4435427.1.2.0,bus2=BBT4435434.1.2.0,Phases=2,Linecode=BT807_BT807_4_2_3,Length=0.040845000,Units=km
new line.13587267 bus1=BBT4435448.1.2.0,bus2=BBT4435455.1.2.0,Phases=2,Linecode=BT808_BT808_4_2_3,Length=0.034706000,Units=km
new line.13587295 bus1=BBT4435420.1.2.0,bus2=BBT4435427.1.2.0,Phases=2,Linecode=BT807_BT807_4_2_3,Length=0.039917000,Units=km
new line.13587302 bus1=BBT4435413.1.2.0,bus2=BBT4435420.1.2.0,Phases=2,Linecode=BT513_BT513_7_2_1,Length=0.000500000,Units=km
new line.13587309 bus1=BBT4435420.1.2.0,bus2=BBT4435441.1.2.0,Phases=2,Linecode=BT808_BT808_4_2_3,Length=0.038992000,Units=km
new line.13587330 bus1=BBT4435441.1.2.0,bus2=BBT4435448.1.2.0,Phases=2,Linecode=BT808_BT808_4_2_3,Length=0.041621000,Units=km
new line.13587358 bus1=BBT4435469.1.2.0,bus2=BBT4435476.1.2.0,Phases=2,Linecode=BT808_BT808_4_2_3,Length=0.039917000,Units=km
new line.13587379 bus1=BBT4435476.1.2.0,bus2=BBT4435483.1.2.0,Phases=2,Linecode=BT808_BT808_4_2_3,Length=0.034533000,Units=km
new line.13595156 bus1=BBT4455972.1.2.0,bus2=BBT4455979.1.2.0,Phases=2,Linecode=BT808_BT808_4_2_3,Length=0.031380000,Units=km
new line.13595198 bus1=BBT4455979.1.2.0,bus2=BBT4455986.1.2.0,Phases=2,Linecode=BT808_BT808_4_2_3,Length=0.033611000,Units=km
new line.13595219 bus1=BBT4455951.1.2.0,bus2=BBT4455972.1.2.0,Phases=2,Linecode=BT807_BT807_4_2_3,Length=0.034665000,Units=km
new line.13595226 bus1=BBT4455944.1.2.0,bus2=BBT4455951.1.2.0,Phases=2,Linecode=BT521_BT521_7_2_1,Length=0.000500000,Units=km
new line.13595233 bus1=BBT4455951.1.2.0,bus2=BBT4455958.1.2.0,Phases=2,Linecode=BT807_BT807_4_2_3,Length=0.041875000,Units=km
new line.13595254 bus1=BBT4455958.1.2.0,bus2=BBT4455965.1.2.0,Phases=2,Linecode=BT808_BT808_4_2_3,Length=0.044096000,Units=km
new line.13595282 bus1=BBT4455888.1.2.0,bus2=BBT4455895.1.2.0,Phases=2,Linecode=BT808_BT808_4_2_3,Length=0.037942000,Units=km
new line.13595303 bus1=BBT4455846.1.2.0,bus2=BBT4455853.1.2.0,Phases=2,Linecode=BT807_BT807_4_2_3,Length=0.035506000,Units=km
new line.13595366 bus1=BBT4455713.1.2.0,bus2=BBT4455720.1.2.0,Phases=2,Linecode=BT807_BT807_4_2_3,Length=0.042538000,Units=km
new line.13595408 bus1=BBT4455664.1.2.0,bus2=BBT4455727.1.2.0,Phases=2,Linecode=BT807_BT807_4_2_3,Length=0.036615000,Units=km
new line.13595415 bus1=BBT4455664.1.2.0,bus2=BBT4455713.1.2.0,Phases=2,Linecode=BT807_BT807_4_2_3,Length=0.034127000,Units=km
new line.13595422 bus1=BBT4455657.1.2.0,bus2=BBT4455664.1.2.0,Phases=2,Linecode=BT521_BT521_7_2_1,Length=0.000500000,Units=km
new line.13595520 bus1=BBT4455881.1.2.0,bus2=BBT4455888.1.2.0,Phases=2,Linecode=BT808_BT808_4_2_3,Length=0.044412000,Units=km
new line.13595541 bus1=BBT4455839.1.2.0,bus2=BBT4455846.1.2.0,Phases=2,Linecode=BT807_BT807_4_2_3,Length=0.049923000,Units=km
new line.13595548 bus1=BBT4455839.1.2.0,bus2=BBT4455881.1.2.0,Phases=2,Linecode=BT807_BT807_4_2_3,Length=0.044412000,Units=km
new line.13595555 bus1=BBT4455832.1.2.0,bus2=BBT4455839.1.2.0,Phases=2,Linecode=BT521_BT521_7_2_1,Length=0.000500000,Units=km
new line.13595576 bus1=BBT4455867.1.2.0,bus2=BBT4455874.1.2.0,Phases=2,Linecode=BT808_BT808_4_2_3,Length=0.036873000,Units=km
new line.13595597 bus1=BBT4455853.1.2.0,bus2=BBT4455860.1.2.0,Phases=2,Linecode=BT808_BT808_4_2_3,Length=0.038582000,Units=km
new line.13595611 bus1=BBT4455860.1.2.0,bus2=BBT4455867.1.2.0,Phases=2,Linecode=BT808_BT808_4_2_3,Length=0.035223000,Units=km
new line.16318401 bus1=BBT20192202.1.2.3.0,bus2=BBT20192209.1.2.3.0,Phases=3,Linecode=BT308_BT308_7_3_1,Length=0.000500000,Units=km
new line.16663354 bus1=BBT35142585.1.2.0,bus2=BBT35142592.1.2.0,Phases=2,Linecode=BT304_BT304_7_2_1,Length=0.000500000,Units=km
new line.16663368 bus1=BBT35142732.1.2.0,bus2=BBT35142739.1.2.0,Phases=2,Linecode=BT316_BT316_7_2_1,Length=0.000500000,Units=km
new line.11209087 bus1=BBT2723542.1.2.3.0,bus2=BBT1094285.1.2.3.0,Phases=3,Linecode=BT107_BT107_7_3_1,Length=0.014863000,Units=km
new line.11209115 bus1=BBT2723528.1.2.3.0,bus2=BBT1094278.1.2.3.0,Phases=3,Linecode=BT108_BT108_7_3_1,Length=0.016997000,Units=km
new line.11209122 bus1=BBT2723528.1.2.3.0,bus2=BBT2723535.1.2.3.0,Phases=3,Linecode=BT107_BT107_7_3_1,Length=0.005999000,Units=km
new line.11209129 bus1=BBT2723528.1.2.3.0,bus2=BBT2723542.1.2.3.0,Phases=3,Linecode=BT107_BT107_7_3_1,Length=0.031379000,Units=km
new line.11953271 bus1=BBT2847918.1.2.0,bus2=BBT2847925.1.2.0,Phases=2,Linecode=BT808_BT808_4_2_3,Length=0.047414000,Units=km
new line.11953362 bus1=BBT2847925.1.2.0,bus2=BBT2847932.1.2.0,Phases=2,Linecode=BT808_BT808_4_2_3,Length=0.046509000,Units=km
new line.11953376 bus1=BBT2847897.1.2.0,bus2=BBT2847904.1.2.0,Phases=2,Linecode=BT807_BT807_4_2_3,Length=0.043453000,Units=km
new line.11953411 bus1=BBT2847904.1.2.0,bus2=BBT2847911.1.2.0,Phases=2,Linecode=BT807_BT807_4_2_3,Length=0.039387000,Units=km
new line.11953432 bus1=BBT2847911.1.2.0,bus2=BBT2847918.1.2.0,Phases=2,Linecode=BT807_BT807_4_2_3,Length=0.041621000,Units=km
new line.11953817 bus1=BBT2848135.1.2.3.0,bus2=BBT2848142.1.2.3.0,Phases=3,Linecode=BT107_BT107_7_3_1,Length=0.055219000,Units=km
new line.11954503 bus1=BBT2848548.1.2.0,bus2=BBT2848555.1.2.0,Phases=2,Linecode=BT316_BT316_7_2_1,Length=0.000500000,Units=km
new line.11955399 bus1=BBT2848695.1.2.0,bus2=BBT2848702.1.2.0,Phases=2,Linecode=BT518_BT518_7_2_1,Length=0.000500000,Units=km
new line.11955406 bus1=BBT2848702.1.2.0,bus2=BBT2848723.1.2.0,Phases=2,Linecode=BT808_BT808_4_2_3,Length=0.039842000,Units=km
new line.11955448 bus1=BBT2848730.1.2.0,bus2=BBT3204659.1.2.0,Phases=2,Linecode=BT814_BT814_4_2_3,Length=0.045444000,Units=km
new line.11955504 bus1=BBT2848723.1.2.0,bus2=BBT2848730.1.2.0,Phases=2,Linecode=BT808_BT808_4_2_3,Length=0.059762000,Units=km
new line.11963043 bus1=BBT2851551.1.2.0,bus2=BBT2851558.1.2.0,Phases=2,Linecode=BT316_BT316_7_2_1,Length=0.000500000,Units=km
new line.11963414 bus1=BBT2851607.1.2.0,bus2=BBT2851614.1.2.0,Phases=2,Linecode=BT316_BT316_7_2_1,Length=0.000500000,Units=km
new line.11963918 bus1=BBT2851677.1.2.0,bus2=BBT2851684.1.2.0,Phases=2,Linecode=BT316_BT316_7_2_1,Length=0.000500000,Units=km
new line.12050606 bus1=BBT2873356.1.2.0,bus2=BBT2873363.1.2.0,Phases=2,Linecode=BT316_BT316_7_2_1,Length=0.000500000,Units=km
new line.12051992 bus1=BBT2873517.1.2.0,bus2=BBT2873524.1.2.0,Phases=2,Linecode=BT316_BT316_7_2_1,Length=0.000500000,Units=km
new line.12052342 bus1=BBT2873531.1.2.0,bus2=BBT2873538.1.2.0,Phases=2,Linecode=BT316_BT316_7_2_1,Length=0.000500000,Units=km
new line.12052363 bus1=BBT2873545.1.2.0,bus2=BBT2873552.1.2.0,Phases=2,Linecode=BT316_BT316_7_2_1,Length=0.000500000,Units=km
new line.12052405 bus1=BBT2873573.1.2.3.0,bus2=BBT2873580.1.2.3.0,Phases=3,Linecode=BT518_BT518_7_3_1,Length=0.000500000,Units=km
new line.12052482 bus1=BBT2873559.1.2.0,bus2=BBT2873566.1.2.0,Phases=2,Linecode=BT316_BT316_7_2_1,Length=0.000500000,Units=km
new line.12052531 bus1=BBT2873587.1.2.0,bus2=BBT2873594.1.2.0,Phases=2,Linecode=BT316_BT316_7_2_1,Length=0.000500000,Units=km
new line.12052559 bus1=BBT2873601.1.2.0,bus2=BBT2873608.1.2.0,Phases=2,Linecode=BT316_BT316_7_2_1,Length=0.000500000,Units=km
new line.12052643 bus1=BBT2873643.1.2.0,bus2=BBT2873650.1.2.0,Phases=2,Linecode=BT316_BT316_7_2_1,Length=0.000500000,Units=km
new line.12052727 bus1=BBT2873874.1.2.0,bus2=BBT2873881.1.2.0,Phases=2,Linecode=BT316_BT316_7_2_1,Length=0.000500000,Units=km
new line.12054547 bus1=BBT2873860.1.2.0,bus2=BBT2873867.1.2.0,Phases=2,Linecode=BT316_BT316_7_2_1,Length=0.000500000,Units=km
new line.12055289 bus1=BBT2874021.1.2.0,bus2=BBT2874028.1.2.0,Phases=2,Linecode=BT521_BT521_7_2_1,Length=0.000500000,Units=km
new line.12056451 bus1=BBT2874035.1.2.0,bus2=BBT2874042.1.2.0,Phases=2,Linecode=BT518_BT518_7_2_1,Length=0.000500000,Units=km
new line.12056990 bus1=BBT2874077.1.2.0,bus2=BBT2874084.1.2.0,Phases=2,Linecode=BT316_BT316_7_2_1,Length=0.000500000,Units=km
new line.12057809 bus1=BBT2874091.1.2.0,bus2=BBT2874098.1.2.0,Phases=2,Linecode=BT316_BT316_7_2_1,Length=0.000500000,Units=km
new line.12058474 bus1=BBT2874483.1.2.0,bus2=BBT2874490.1.2.0,Phases=2,Linecode=BT316_BT316_7_2_1,Length=0.000500000,Units=km
new line.12058495 bus1=BBT2874399.1.2.0,bus2=BBT2874406.1.2.0,Phases=2,Linecode=BT316_BT316_7_2_1,Length=0.000500000,Units=km
new line.12059615 bus1=BBT2874497.1.2.0,bus2=BBT2874504.1.2.0,Phases=2,Linecode=BT316_BT316_7_2_1,Length=0.000500000,Units=km
new line.12059741 bus1=BBT2874560.1.2.0,bus2=BBT2874567.1.2.0,Phases=2,Linecode=BT316_BT316_7_2_1,Length=0.000500000,Units=km
new line.12059937 bus1=BBT2874581.1.2.0,bus2=BBT2874588.1.2.0,Phases=2,Linecode=BT316_BT316_7_2_1,Length=0.000500000,Units=km
new line.12300716 bus1=BBT3103887.1.2.0,bus2=BBT3103894.1.2.0,Phases=2,Linecode=BT316_BT316_7_2_1,Length=0.000500000,Units=km
new line.12303152 bus1=BBT2920564.1.2.3.0,bus2=BBT2920571.1.2.3.0,Phases=3,Linecode=BT509_BT509_7_3_1,Length=0.000500000,Units=km
new line.12851252 bus1=BBT3071820.1.2.0,bus2=BBT3071827.1.2.0,Phases=2,Linecode=BT316_BT316_7_2_1,Length=0.000500000,Units=km
new line.12855760 bus1=BBT3072807.1.2.0,bus2=BBT3072814.1.2.0,Phases=2,Linecode=BT316_BT316_7_2_1,Length=0.000500000,Units=km
new line.12856243 bus1=BBT3072856.1.2.0,bus2=BBT3072863.1.2.0,Phases=2,Linecode=BT316_BT316_7_2_1,Length=0.000500000,Units=km
new line.12856264 bus1=BBT3072891.1.2.0,bus2=BBT3072898.1.2.0,Phases=2,Linecode=BT316_BT316_7_2_1,Length=0.000500000,Units=km
new line.13046559 bus1=BBT3211372.1.2.0,bus2=BBT3211379.1.2.0,Phases=2,Linecode=BT316_BT316_7_2_1,Length=0.000500000,Units=km
new line.13054847 bus1=BBT3214354.1.2.0,bus2=BBT3214361.1.2.0,Phases=2,Linecode=BT304_BT304_7_2_1,Length=0.000500000,Units=km
new line.13076442 bus1=BBT3243775.1.2.0,bus2=BBT3243782.1.2.0,Phases=2,Linecode=BT316_BT316_7_2_1,Length=0.000500000,Units=km
new line.13292574 bus1=BBT3490616.1.2.0,bus2=BBT3490630.1.2.0,Phases=2,Linecode=BT316_BT316_7_2_1,Length=0.000500000,Units=km
new line.13650218 bus1=BBT4602909.1.2.3.0,bus2=BBT4602916.1.2.3.0,Phases=3,Linecode=BT308_BT308_7_3_1,Length=0.000500000,Units=km
new line.13665422 bus1=BBT4641346.1.2.0,bus2=BBT4641353.1.2.0,Phases=2,Linecode=BT307_BT307_7_2_1,Length=0.000500000,Units=km
new line.16331337 bus1=BBT20534901.1.2.0,bus2=BBT20534908.1.2.0,Phases=2,Linecode=BT307_BT307_7_2_1,Length=0.000500000,Units=km
new line.16333080 bus1=BBT20559765.1.2.3.0,bus2=BBT20559772.1.2.3.0,Phases=3,Linecode=BT308_BT308_7_3_1,Length=0.000500000,Units=km
new line.16563240 bus1=BBT29789629.1.2.3.0,bus2=BBT29789636.1.2.3.0,Phases=3,Linecode=BT308_BT308_7_3_1,Length=0.000500000,Units=km
new line.16576477 bus1=BBT30338863.1.2.3.0,bus2=BBT30338870.1.2.3.0,Phases=3,Linecode=BT307_BT307_7_3_1,Length=0.000500000,Units=km
new line.16576827 bus1=BBT30347158.1.2.0,bus2=BBT30347165.1.2.0,Phases=2,Linecode=BT307_BT307_7_2_1,Length=0.000500000,Units=km
new line.16703163 bus1=BBT34050725.1.2.0,bus2=BBT34050732.1.2.0,Phases=2,Linecode=BT317_BT317_7_2_1,Length=0.000500000,Units=km
new line.16960630 bus1=BBT41673676.1.2.0,bus2=BBT41673683.1.2.0,Phases=2,Linecode=BT316_BT316_7_2_1,Length=0.000500000,Units=km
new line.17070789 bus1=BBT46448362.1.2.0,bus2=BBT46448369.1.2.0,Phases=2,Linecode=BT316_BT316_7_2_1,Length=0.000500000,Units=km
new line.17071944 bus1=BBT46491125.1.2.0,bus2=BBT46491132.1.2.0,Phases=2,Linecode=BT316_BT316_7_2_1,Length=0.000500000,Units=km
new line.17072105 bus1=BBT46506917.1.2.0,bus2=BBT46506924.1.2.0,Phases=2,Linecode=BT316_BT316_7_2_1,Length=0.000500000,Units=km
new line.17086840 bus1=BBT48810645.1.2.0,bus2=BBT48810652.1.2.0,Phases=2,Linecode=BT316_BT316_7_2_1,Length=0.000500000,Units=km
new line.17934323 bus1=BBT93862932.1.2.3.0,bus2=BBT93862939.1.2.3.0,Phases=3,Linecode=BT521_BT521_7_3_1,Length=0.000500000,Units=km
new line.17934337 bus1=BBT93862939.1.2.3.0,bus2=BBT93863653.1.2.3.0,Phases=3,Linecode=BT803_BT803_4_3_4,Length=0.026244000,Units=km
new line.17934344 bus1=BBT93863653.1.2.3.0,bus2=BBT93864059.1.2.3.0,Phases=3,Linecode=BT803_BT803_4_3_4,Length=0.032305000,Units=km
new line.17934365 bus1=BBT93864059.1.2.3.0,bus2=BBT93864297.1.2.3.0,Phases=3,Linecode=BT810_BT810_4_3_4,Length=0.026244000,Units=km
new line.17934372 bus1=BBT93864297.1.2.3.0,bus2=BBT93864325.1.2.3.0,Phases=3,Linecode=BT810_BT810_4_3_4,Length=0.034169000,Units=km
new line.17934379 bus1=BBT93864325.1.2.3.0,bus2=BBT93864381.1.2.3.0,Phases=3,Linecode=BT810_BT810_4_3_4,Length=0.034778000,Units=km
new line.17934386 bus1=BBT93864381.1.2.3.0,bus2=BBT93864423.1.2.3.0,Phases=3,Linecode=BT810_BT810_4_3_4,Length=0.035107000,Units=km
new line.17934414 bus1=BBT93862939.1.2.3.0,bus2=BBT93865172.1.2.3.0,Phases=3,Linecode=BT803_BT803_4_3_4,Length=0.032887000,Units=km
new line.17934421 bus1=BBT93865172.1.2.3.0,bus2=BBT93865179.1.2.3.0,Phases=3,Linecode=BT803_BT803_4_3_4,Length=0.032887000,Units=km
new line.17934449 bus1=BBT93865179.1.2.3.0,bus2=BBT93865389.1.2.3.0,Phases=3,Linecode=BT810_BT810_4_3_4,Length=0.030670000,Units=km
new line.17934456 bus1=BBT93865389.1.2.3.0,bus2=BBT93865396.1.2.3.0,Phases=3,Linecode=BT810_BT810_4_3_4,Length=0.029726000,Units=km
new line.17934463 bus1=BBT93865396.1.2.3.0,bus2=BBT93865494.1.2.3.0,Phases=3,Linecode=BT810_BT810_4_3_4,Length=0.031010000,Units=km
new line.17934470 bus1=BBT93865494.1.2.3.0,bus2=BBT93865501.1.2.3.0,Phases=3,Linecode=BT810_BT810_4_3_4,Length=0.026244000,Units=km
new line.17934477 bus1=BBT93865501.1.2.3.0,bus2=BBT93865599.1.2.3.0,Phases=3,Linecode=BT810_BT810_4_3_4,Length=0.026566000,Units=km
new line.17934484 bus1=BBT93865599.1.2.3.0,bus2=BBT93865739.1.2.3.0,Phases=3,Linecode=BT810_BT810_4_3_4,Length=0.023405000,Units=km
new line.17934568 bus1=BBT1099080.1.2.3.0,bus2=BBT93867846.1.2.3.0,Phases=3,Linecode=BT810_BT810_4_3_4,Length=0.041968000,Units=km
new line.17934589 bus1=BBT93867846.1.2.3.0,bus2=BBT93867867.1.2.3.0,Phases=3,Linecode=BT810_BT810_4_3_4,Length=0.042747000,Units=km
new line.17934596 bus1=BBT992911.1.2.3.0,bus2=BBT93868469.1.2.3.0,Phases=3,Linecode=BT810_BT810_4_3_4,Length=0.031569000,Units=km
new line.17934603 bus1=BBT93868469.1.2.3.0,bus2=BBT93868476.1.2.3.0,Phases=3,Linecode=BT810_BT810_4_3_4,Length=0.032551000,Units=km
new line.17934610 bus1=BBT93868476.1.2.3.0,bus2=BBT93868483.1.2.3.0,Phases=3,Linecode=BT810_BT810_4_3_4,Length=0.026301000,Units=km
new line.17934631 bus1=BBT1092605.1.2.3.0,bus2=BBT93869379.1.2.3.0,Phases=3,Linecode=BT803_BT803_4_3_4,Length=0.023017000,Units=km
new line.17934645 bus1=BBT93869379.1.2.3.0,bus2=BBT93870121.1.2.3.0,Phases=3,Linecode=BT810_BT810_4_3_4,Length=0.035504000,Units=km
new line.17934813 bus1=BBT4290058.1.2.3.0,bus2=BBT93881321.1.2.3.0,Phases=3,Linecode=BT810_BT810_4_3_4,Length=0.044376000,Units=km
new line.17934820 bus1=BBT93881321.1.2.3.0,bus2=BBT93881580.1.2.3.0,Phases=3,Linecode=BT810_BT810_4_3_4,Length=0.044376000,Units=km
new line.17934974 bus1=BBT93889546.1.2.3.0,bus2=BBT1093270.1.2.3.0,Phases=3,Linecode=BT108_BT107_7_3_1,Length=0.013151000,Units=km
new line.17934995 bus1=BBT93889693.1.2.3.0,bus2=BBT1091163.1.2.3.0,Phases=3,Linecode=BT810_BT810_4_3_4,Length=0.022019000,Units=km
new line.17935023 bus1=BBT4290058.1.2.3.0,bus2=BBT93892416.1.2.3.0,Phases=3,Linecode=BT810_BT810_4_3_4,Length=0.019694000,Units=km
new line.17935030 bus1=BBT93892416.1.2.3.0,bus2=BBT93892423.1.2.3.0,Phases=3,Linecode=BT810_BT810_4_3_4,Length=0.041223000,Units=km
new line.17935037 bus1=BBT93892416.1.2.3.0,bus2=BBT93892430.1.2.3.0,Phases=3,Linecode=BT810_BT810_4_3_4,Length=0.044376000,Units=km
new line.17935044 bus1=BBT93892430.1.2.3.0,bus2=BBT93892437.1.2.3.0,Phases=3,Linecode=BT810_BT810_4_3_4,Length=0.045301000,Units=km
new line.17935121 bus1=BBT93895559.1.2.3.0,bus2=BBT93895566.1.2.3.0,Phases=3,Linecode=BT521_BT521_7_3_1,Length=0.000500000,Units=km
new line.17935282 bus1=BBT93895566.1.2.3.0,bus2=BBT93899507.1.2.3.0,Phases=3,Linecode=BT810_BT810_4_3_4,Length=0.037329000,Units=km
new line.17935289 bus1=BBT93895566.1.2.3.0,bus2=BBT93899815.1.2.3.0,Phases=3,Linecode=BT810_BT810_4_3_4,Length=0.035840000,Units=km
new line.17935296 bus1=BBT93899815.1.2.3.0,bus2=BBT93900214.1.2.3.0,Phases=3,Linecode=BT810_BT810_4_3_4,Length=0.035840000,Units=km
new line.17935303 bus1=BBT93899507.1.2.3.0,bus2=BBT93900473.1.2.3.0,Phases=3,Linecode=BT810_BT810_4_3_4,Length=0.014558000,Units=km
new line.17935310 bus1=BBT93900473.1.2.3.0,bus2=BBT93900585.1.2.3.0,Phases=3,Linecode=BT810_BT810_4_3_4,Length=0.038619000,Units=km
new line.17935317 bus1=BBT93900585.1.2.3.0,bus2=BBT93900669.1.2.3.0,Phases=3,Linecode=BT810_BT810_4_3_4,Length=0.034922000,Units=km
new line.17935352 bus1=BBT1096196.1.2.3.0,bus2=BBT93904344.1.2.3.0,Phases=3,Linecode=BT803_BT803_4_3_4,Length=0.004999000,Units=km
new line.17935366 bus1=BBT93904344.1.2.3.0,bus2=BBT93905422.1.2.3.0,Phases=3,Linecode=BT810_BT810_4_3_4,Length=0.004123000,Units=km
new line.17935380 bus1=BBT93904344.1.2.3.0,bus2=BBT93905499.1.2.3.0,Phases=3,Linecode=BT810_BT810_4_3_4,Length=0.032750000,Units=km
new line.17935387 bus1=BBT93905499.1.2.3.0,bus2=BBT93905926.1.2.3.0,Phases=3,Linecode=BT810_BT810_4_3_4,Length=0.038825000,Units=km
new line.17935394 bus1=BBT1096189.1.2.3.0,bus2=BBT93906850.1.2.3.0,Phases=3,Linecode=BT810_BT810_4_3_4,Length=0.016398000,Units=km
new line.17935401 bus1=BBT93906850.1.2.3.0,bus2=BBT93907228.1.2.3.0,Phases=3,Linecode=BT810_BT810_4_3_4,Length=0.039286000,Units=km
new line.17935464 bus1=BBT93910987.1.2.3.0,bus2=BBT93910994.1.2.3.0,Phases=3,Linecode=BT521_BT521_7_3_1,Length=0.000500000,Units=km
new line.17935478 bus1=BBT93910994.1.2.3.0,bus2=BBT93911253.1.2.3.0,Phases=3,Linecode=BT803_BT803_4_3_4,Length=0.044263000,Units=km
new line.17935485 bus1=BBT93911253.1.2.3.0,bus2=BBT117254671.1.2.3.0,Phases=3,Linecode=BT803_BT803_4_3_4,Length=0.017461000,Units=km
new line.17935492 bus1=BBT93911260.1.2.3.0,bus2=BBT93911337.1.2.3.0,Phases=3,Linecode=BT810_BT810_4_3_4,Length=0.034533000,Units=km
new line.17935499 bus1=BBT93911337.1.2.3.0,bus2=BBT93911365.1.2.3.0,Phases=3,Linecode=BT810_BT810_4_3_4,Length=0.041223000,Units=km
new line.17935506 bus1=BBT93911365.1.2.3.0,bus2=BBT93911449.1.2.3.0,Phases=3,Linecode=BT810_BT810_4_3_4,Length=0.039917000,Units=km
new line.17935513 bus1=BBT93911449.1.2.3.0,bus2=BBT93911456.1.2.3.0,Phases=3,Linecode=BT810_BT810_4_3_4,Length=0.038992000,Units=km
new line.17935520 bus1=BBT93910994.1.2.3.0,bus2=BBT93911785.1.2.3.0,Phases=3,Linecode=BT803_BT803_4_3_4,Length=0.038071000,Units=km
new line.17935527 bus1=BBT93911785.1.2.3.0,bus2=BBT93911813.1.2.3.0,Phases=3,Linecode=BT803_BT803_4_3_4,Length=0.037101000,Units=km
new line.10077614 bus1=BBT2566721.1.2.3.0,bus2=BBT2566728.1.2.3.0,Phases=3,Linecode=BT308_BT308_7_3_1,Length=0.000500000,Units=km
new line.10615025 bus1=BBT2649874.1.2.3.0,bus2=BBT2649888.1.2.3.0,Phases=3,Linecode=BT810_BT810_4_3_4,Length=0.011660000,Units=km
new line.10615032 bus1=BBT2649874.1.2.3.0,bus2=BBT1098590.1.2.3.0,Phases=3,Linecode=BT107_BT107_7_3_1,Length=0.016997000,Units=km
new line.10615039 bus1=BBT2649874.1.2.3.0,bus2=BBT2649881.1.2.3.0,Phases=3,Linecode=BT810_BT810_4_3_4,Length=0.019694000,Units=km
new line.10615641 bus1=BBT2649902.1.2.3.0,bus2=BBT2649909.1.2.3.0,Phases=3,Linecode=BT810_BT810_4_3_4,Length=0.034475000,Units=km
new line.11967740 bus1=BBT2852188.1.2.0,bus2=BBT2852195.1.2.0,Phases=2,Linecode=BT518_BT518_7_2_1,Length=0.000500000,Units=km
new line.11967747 bus1=BBT2852195.1.2.0,bus2=BBT3434966.1.2.0,Phases=2,Linecode=BT808_BT808_4_2_3,Length=0.029148000,Units=km
new line.11981712 bus1=BBT2854771.1.2.0,bus2=BBT2854778.1.2.0,Phases=2,Linecode=BT316_BT316_7_2_1,Length=0.000500000,Units=km
new line.11982139 bus1=BBT2854883.1.2.0,bus2=BBT2854890.1.2.0,Phases=2,Linecode=BT518_BT518_7_2_1,Length=0.000500000,Units=km
new line.11982146 bus1=BBT2854890.1.2.0,bus2=BBT2854904.1.2.0,Phases=2,Linecode=BT808_BT808_4_2_3,Length=0.040301000,Units=km
new line.11982153 bus1=BBT2854890.1.2.0,bus2=BBT2854911.1.2.0,Phases=2,Linecode=BT808_BT808_4_2_3,Length=0.039614000,Units=km
new line.11983273 bus1=BBT2854911.1.2.0,bus2=BBT2854918.1.2.0,Phases=2,Linecode=BT808_BT808_4_2_3,Length=0.059827000,Units=km
new line.11983280 bus1=BBT2854911.1.2.0,bus2=BBT2854925.1.2.0,Phases=2,Linecode=BT808_BT808_4_2_3,Length=0.059525000,Units=km
new line.12375063 bus1=BBT3088634.1.2.0,bus2=BBT3088641.1.2.0,Phases=2,Linecode=BT316_BT316_7_2_1,Length=0.000500000,Units=km
new line.12781210 bus1=BBT3044870.1.2.0,bus2=BBT3044877.1.2.0,Phases=2,Linecode=BT304_BT304_7_2_1,Length=0.000500000,Units=km
new line.12781273 bus1=BBT3044996.1.2.0,bus2=BBT3045003.1.2.0,Phases=2,Linecode=BT508_BT508_7_2_1,Length=0.000500000,Units=km
new line.12792893 bus1=BBT3047586.1.2.0,bus2=BBT3047593.1.2.0,Phases=2,Linecode=BT108_BT108_7_2_1,Length=0.060291000,Units=km
new line.12792963 bus1=BBT3047572.1.2.0,bus2=BBT3047579.1.2.0,Phases=2,Linecode=BT108_BT108_7_2_1,Length=0.058069000,Units=km
new line.12793005 bus1=BBT3047523.1.2.0,bus2=BBT3047565.1.2.0,Phases=2,Linecode=BT108_BT108_7_2_1,Length=0.055652000,Units=km
new line.13018615 bus1=BBT3178759.1.2.0,bus2=BBT3178766.1.2.0,Phases=2,Linecode=BT316_BT316_7_2_1,Length=0.000500000,Units=km
new line.13034267 bus1=BBT3204659.1.2.0,bus2=BBT3204666.1.2.0,Phases=2,Linecode=BT814_BT814_4_2_3,Length=0.047498000,Units=km
new line.13041596 bus1=BBT3209195.1.2.0,bus2=BBT3209202.1.2.0,Phases=2,Linecode=BT316_BT316_7_2_1,Length=0.000500000,Units=km
new line.13044053 bus1=BBT3209874.1.2.0,bus2=BBT3209881.1.2.0,Phases=2,Linecode=BT316_BT316_7_2_1,Length=0.000500000,Units=km
new line.13044074 bus1=BBT3209916.1.2.0,bus2=BBT3209923.1.2.0,Phases=2,Linecode=BT304_BT304_7_2_1,Length=0.000500000,Units=km
new line.13044116 bus1=BBT3209888.1.2.0,bus2=BBT3209895.1.2.0,Phases=2,Linecode=BT518_BT518_7_2_1,Length=0.000500000,Units=km
new line.13044123 bus1=BBT3209895.1.2.0,bus2=BBT3209902.1.2.0,Phases=2,Linecode=BT814_BT814_4_2_3,Length=0.039309000,Units=km
new line.13044158 bus1=BBT3209902.1.2.0,bus2=BBT3209909.1.2.0,Phases=2,Linecode=BT814_BT814_4_2_3,Length=0.041426000,Units=km
new line.13046125 bus1=BBT3211246.1.2.0,bus2=BBT3211253.1.2.0,Phases=2,Linecode=BT316_BT316_7_2_1,Length=0.000500000,Units=km
new line.13046139 bus1=BBT3211260.1.2.0,bus2=BBT3211267.1.2.0,Phases=2,Linecode=BT316_BT316_7_2_1,Length=0.000500000,Units=km
new line.13519234 bus1=BBT4242493.1.2.0,bus2=BBT4242500.1.2.0,Phases=2,Linecode=BT304_BT304_7_2_1,Length=0.000500000,Units=km
new line.13526766 bus1=BBT4290051.1.2.3.0,bus2=BBT4290058.1.2.3.0,Phases=3,Linecode=BT810_BT810_4_3_4,Length=0.046230000,Units=km
new line.13527151 bus1=BBT4291171.1.2.3.0,bus2=BBT4291178.1.2.3.0,Phases=3,Linecode=BT307_BT307_7_3_1,Length=0.000500000,Units=km
new line.13604410 bus1=BBT4493191.2.3.0,bus2=BBT4493198.2.3.0,Phases=2,Linecode=BT808_BT808_4_2_3,Length=0.039044000,Units=km
new line.13604452 bus1=BBT4493205.1.2.3.0,bus2=BBT1093949.1.2.3.0,Phases=3,Linecode=BT107_BT107_7_3_1,Length=0.018678000,Units=km
new line.13604459 bus1=BBT4493205.1.2.3.0,bus2=BBT4493212.1.2.3.0,Phases=3,Linecode=BT810_BT810_4_3_4,Length=0.015130000,Units=km
new line.13604466 bus1=BBT4493205.1.2.3.0,bus2=BBT4493219.1.2.3.0,Phases=3,Linecode=BT810_BT810_4_3_4,Length=0.018381000,Units=km
new line.13610486 bus1=BBT4509004.1.2.0,bus2=BBT4509011.1.2.0,Phases=2,Linecode=BT521_BT521_7_2_1,Length=0.000500000,Units=km
new line.13610493 bus1=BBT4509011.1.2.0,bus2=BBT4509018.1.2.0,Phases=2,Linecode=BT808_BT808_4_2_3,Length=0.041335000,Units=km
new line.16475614 bus1=BBT26163762.1.2.3.0,bus2=BBT26163769.1.2.3.0,Phases=3,Linecode=BT308_BT308_7_3_1,Length=0.000500000,Units=km
new line.16591051 bus1=BBT30881818.1.2.3.0,bus2=BBT30881825.1.2.3.0,Phases=3,Linecode=BT308_BT308_7_3_1,Length=0.000500000,Units=km
new line.16878296 bus1=BBT38824186.1.2.0,bus2=BBT38824193.1.2.0,Phases=2,Linecode=BT316_BT316_7_2_1,Length=0.000500000,Units=km
new line.16986663 bus1=BBT42543636.1.2.0,bus2=BBT42543643.1.2.0,Phases=2,Linecode=BT316_BT316_7_2_1,Length=0.000500000,Units=km
new line.16986789 bus1=BBT42553555.1.2.0,bus2=BBT42553562.1.2.0,Phases=2,Linecode=BT521_BT521_7_2_1,Length=0.000500000,Units=km
new line.16989701 bus1=BBT42706288.1.2.0,bus2=BBT42706295.1.2.0,Phases=2,Linecode=BT316_BT316_7_2_1,Length=0.000500000,Units=km
new line.16992683 bus1=BBT42875702.1.2.0,bus2=BBT42875709.1.2.0,Phases=2,Linecode=BT316_BT316_7_2_1,Length=0.000500000,Units=km
new line.16993033 bus1=BBT42911066.1.2.0,bus2=BBT42911080.1.2.0,Phases=2,Linecode=BT316_BT316_7_2_1,Length=0.000500000,Units=km
new line.16999858 bus1=BBT43148100.1.2.0,bus2=BBT43148107.1.2.0,Phases=2,Linecode=BT307_BT307_7_2_1,Length=0.000500000,Units=km
new line.17016868 bus1=BBT43979560.1.2.0,bus2=BBT43979567.1.2.0,Phases=2,Linecode=BT307_BT307_7_2_1,Length=0.000500000,Units=km
new line.17017925 bus1=BBT1096973.1.2.0,bus2=BBT44015729.1.2.0,Phases=2,Linecode=BT808_BT808_4_2_3,Length=0.038992000,Units=km
new line.17822708 bus1=BBT88080792.1.2.3.0,bus2=BBT161437437.1.2.3.0,Phases=3,Linecode=BT513_BT513_7_3_1,Length=0.000500000,Units=km
new line.17833593 bus1=BBT88946510.1.2.0,bus2=BBT88946517.1.2.0,Phases=2,Linecode=BT316_BT316_7_2_1,Length=0.000500000,Units=km
new line.17839487 bus1=BBT89489871.1.2.0,bus2=BBT89489878.1.2.0,Phases=2,Linecode=BT304_BT304_7_2_1,Length=0.000500000,Units=km
new line.17839529 bus1=BBT1030004.1.2.3.0,bus2=BBT89491292.1.2.3.0,Phases=3,Linecode=BT808_BT808_4_3_3,Length=0.029403000,Units=km
new line.17839536 bus1=BBT89491292.1.2.0,bus2=BBT89491299.1.2.0,Phases=2,Linecode=BT808_BT808_4_2_3,Length=0.039839000,Units=km
new line.17839543 bus1=BBT89491299.1.2.0,bus2=BBT89491306.1.2.0,Phases=2,Linecode=BT808_BT808_4_2_3,Length=0.039839000,Units=km
new line.17990211 bus1=BBT1093564.1.2.3.0,bus2=BBT105143194.1.2.3.0,Phases=3,Linecode=BT803_BT803_4_3_4,Length=0.008543000,Units=km
new line.17990218 bus1=BBT105143194.1.2.3.0,bus2=BBT105143243.1.2.3.0,Phases=3,Linecode=BT803_BT803_4_3_4,Length=0.024511000,Units=km
new line.17935534 bus1=BBT93911813.1.2.3.0,bus2=BBT93911918.1.2.3.0,Phases=3,Linecode=BT803_BT803_4_3_4,Length=0.035896000,Units=km
new line.17935541 bus1=BBT93911918.1.2.3.0,bus2=BBT93911925.1.2.3.0,Phases=3,Linecode=BT803_BT803_4_3_4,Length=0.035121000,Units=km
new line.17935548 bus1=BBT93911925.1.2.3.0,bus2=BBT93912044.1.2.3.0,Phases=3,Linecode=BT810_BT810_4_3_4,Length=0.027161000,Units=km
new line.17935555 bus1=BBT93912044.1.2.3.0,bus2=BBT93912051.1.2.3.0,Phases=3,Linecode=BT810_BT810_4_3_4,Length=0.031139000,Units=km