! manter este comentario para compatibilidade do C#
new circuit.alimIIIU12 bus1=BMT163873522.1.2.3,basekv=13.800000000,pu=1.040000000