new line.RML10064954 bus1=BBT20386.1.0,bus2=RML210064954.1.0,Phases=1,Linecode=CABBTG02_4_1,Length=0.017000000,Units=km
new line.RML10068 bus1=BBT2984.1.2.0,bus2=RML200010068.1.2.0,Phases=2,Linecode=CABBTG05_4_2,Length=0.017000000,Units=km
new line.RML10103 bus1=BBT3005.1.2.3.0,bus2=RML200010103.1.2.3.0,Phases=3,Linecode=CABBTG07_4_3,Length=0.017000000,Units=km
new line.RML10143300 bus1=BBT18111.1.2.0,bus2=RML210143300.1.2.0,Phases=2,Linecode=CABBT811_4_2,Length=0.017000000,Units=km
new line.RML10143901 bus1=BBT97504346.1.2.0,bus2=RML210143901.1.2.0,Phases=2,Linecode=CABBT811_4_2,Length=0.017000000,Units=km
new line.RML10143951 bus1=BBT298034.1.2.0,bus2=RML210143951.1.2.0,Phases=2,Linecode=CABBT811_4_2,Length=0.017000000,Units=km
new line.RML10144034 bus1=BBT8885.1.3.0,bus2=RML210144034.1.3.0,Phases=2,Linecode=CABBT811_4_2,Length=0.017000000,Units=km
new line.RML10144393 bus1=BBT70807.1.2.0,bus2=RML210144393.1.2.0,Phases=2,Linecode=CABBTG05_4_2,Length=0.017000000,Units=km
new line.RML10145 bus1=BBT3012.1.0,bus2=RML200010145.1.0,Phases=1,Linecode=CABBTG01_4_1,Length=0.017000000,Units=km
new line.RML10145091 bus1=BBT9872.3.0,bus2=RML210145091.3.0,Phases=1,Linecode=CABBTG02_4_1,Length=0.017000000,Units=km
new line.RML10145129 bus1=BBT338494.1.2.0,bus2=RML210145129.1.2.0,Phases=2,Linecode=CABBTG05_4_2,Length=0.017000000,Units=km
new line.RML10145708 bus1=BBT6197.1.2.0,bus2=RML210145708.1.2.0,Phases=2,Linecode=CABBTG05_4_2,Length=0.017000000,Units=km
new line.RML10145748 bus1=BBT2151.1.2.0,bus2=RML210145748.1.2.0,Phases=2,Linecode=CABBTG05_4_2,Length=0.017000000,Units=km
new line.RML10145776 bus1=BBT8906.1.0,bus2=RML210145776.1.0,Phases=1,Linecode=CABBTG02_4_1,Length=0.017000000,Units=km
new line.RML10146170 bus1=BBT5714.2.0,bus2=RML210146170.2.0,Phases=1,Linecode=CABBTG01_4_1,Length=0.017000000,Units=km
new line.RML10202878 bus1=BBT97469199.2.0,bus2=RML210202878.2.0,Phases=1,Linecode=CABBTG02_4_1,Length=0.017000000,Units=km
new line.RML10202891 bus1=BBT5994.1.0,bus2=RML210202891.1.0,Phases=1,Linecode=CABBTG02_4_1,Length=0.017000000,Units=km
new line.RML10202973 bus1=BBT389825.1.2.0,bus2=RML210202973.1.2.0,Phases=2,Linecode=CABBTG05_4_2,Length=0.017000000,Units=km
new line.RML10203007 bus1=BBT4237935.2.0,bus2=RML210203007.2.0,Phases=1,Linecode=CABBTG02_4_1,Length=0.017000000,Units=km
new line.RML10208 bus1=BBT3026.2.0,bus2=RML200010208.2.0,Phases=1,Linecode=CABBTG02_4_1,Length=0.017000000,Units=km
new line.RML10208873 bus1=BBT97469199.2.0,bus2=RML210208873.2.0,Phases=1,Linecode=CABBTG02_4_1,Length=0.017000000,Units=km
new line.RML10208882 bus1=BBT97469192.1.2.3.0,bus2=RML210208882.1.2.3.0,Phases=3,Linecode=CABBTG06_4_3,Length=0.017000000,Units=km
new line.RML10271 bus1=BBT3047.3.0,bus2=RML200010271.3.0,Phases=1,Linecode=CABBTG01_4_1,Length=0.017000000,Units=km
new line.RML10273727 bus1=BBT2389.1.2.0,bus2=RML210273727.1.2.0,Phases=2,Linecode=CABBTG05_4_2,Length=0.017000000,Units=km
new line.RML10327 bus1=BBT3075.1.2.3.0,bus2=RML200010327.1.2.3.0,Phases=3,Linecode=CABBTG06_4_3,Length=0.017000000,Units=km
new line.RML10331147 bus1=BBT11685.1.0,bus2=RML210331147.1.0,Phases=1,Linecode=CABBTG02_4_1,Length=0.017000000,Units=km
new line.RML10332960 bus1=BBT2326.1.0,bus2=RML210332960.1.0,Phases=1,Linecode=CABBTG02_4_1,Length=0.017000000,Units=km
new line.RML10333789 bus1=BBT389937.1.2.0,bus2=RML210333789.1.2.0,Phases=2,Linecode=CABBTG05_4_2,Length=0.017000000,Units=km
new line.RML10334 bus1=BBT3075.1.0,bus2=RML200010334.1.0,Phases=1,Linecode=CABBTG01_4_1,Length=0.017000000,Units=km
new line.RML10386126 bus1=BBT97469059.1.2.0,bus2=RML210386126.1.2.0,Phases=2,Linecode=CABBTG05_4_2,Length=0.017000000,Units=km
new line.RML10387099 bus1=BBT8003.1.2.3.0,bus2=RML210387099.1.2.3.0,Phases=3,Linecode=CABBTG06_4_3,Length=0.017000000,Units=km
new line.RML10390 bus1=BBT3096.2.3.0,bus2=RML200010390.2.3.0,Phases=2,Linecode=CABBTG05_4_2,Length=0.017000000,Units=km
new line.RML10391458 bus1=BBT148544950.2.3.0,bus2=RML210391458.2.3.0,Phases=2,Linecode=CABBTG05_4_2,Length=0.017000000,Units=km
new line.RML10446 bus1=BBT3103.2.0,bus2=RML200010446.2.0,Phases=1,Linecode=CABBTG01_4_1,Length=0.017000000,Units=km
new line.RML10446814 bus1=BBT389895.1.0,bus2=RML210446814.1.0,Phases=1,Linecode=CABBTG02_4_1,Length=0.017000000,Units=km
new line.RML10447829 bus1=BBT1983.1.0,bus2=RML210447829.1.0,Phases=1,Linecode=CABBTG02_4_1,Length=0.017000000,Units=km
new line.RML10449126 bus1=BBT150683388.1.3.0,bus2=RML210449126.1.3.0,Phases=2,Linecode=CABBT808_4_2,Length=0.017000000,Units=km
new line.RML10508690 bus1=BBT148546180.1.2.0,bus2=RML210508690.1.2.0,Phases=2,Linecode=CABBTG05_4_2,Length=0.017000000,Units=km
new line.RML10508695 bus1=BBT148547499.1.2.0,bus2=RML210508695.1.2.0,Phases=2,Linecode=CABBTG05_4_2,Length=0.020000000,Units=km
new line.RML10032207 bus1=BBT389916.1.0,bus2=RML210032207.1.0,Phases=1,Linecode=CABBTG01_4_1,Length=0.017000000,Units=km
new line.RML10033 bus1=BBT2984.3.0,bus2=RML200010033.3.0,Phases=1,Linecode=CABBTG01_4_1,Length=0.017000000,Units=km
new line.RML10035207 bus1=BBT97430083.1.0,bus2=RML210035207.1.0,Phases=1,Linecode=CABBTG01_4_1,Length=0.017000000,Units=km
new line.RML10035296 bus1=BBT297957.1.0,bus2=RML210035296.1.0,Phases=1,Linecode=CABBTG01_4_1,Length=0.017000000,Units=km
new line.RML10036417 bus1=BBT390070.1.0,bus2=RML210036417.1.0,Phases=1,Linecode=CABBTG02_4_1,Length=0.017000000,Units=km
new line.RML10037348 bus1=BBT389832.1.0,bus2=RML210037348.1.0,Phases=1,Linecode=CABBTG01_4_1,Length=0.017000000,Units=km
new line.RML10037387 bus1=BBT14002.1.2.0,bus2=RML210037387.1.2.0,Phases=2,Linecode=CABBTG04_4_2,Length=0.017000000,Units=km
new line.RML10115125 bus1=BBT301786.1.2.0,bus2=RML210115125.1.2.0,Phases=2,Linecode=CABBTG05_4_2,Length=0.017000000,Units=km
new line.RML10115573 bus1=BBT97430083.1.2.0,bus2=RML210115573.1.2.0,Phases=2,Linecode=CABBTG05_4_2,Length=0.017000000,Units=km
new line.RML10116393 bus1=BBT97430083.1.2.0,bus2=RML210116393.1.2.0,Phases=2,Linecode=CABBTG05_4_2,Length=0.017000000,Units=km
new line.RML10117 bus1=BBT3005.1.2.3.0,bus2=RML200010117.1.2.3.0,Phases=3,Linecode=CABBTG11_4_3,Length=0.017000000,Units=km
new line.RML10117462 bus1=BBT3474.1.0,bus2=RML210117462.1.0,Phases=1,Linecode=CABBTG02_4_1,Length=0.017000000,Units=km
new line.RML10117703 bus1=BBT13281.1.2.3.0,bus2=RML210117703.1.2.3.0,Phases=3,Linecode=CABBTG07_4_3,Length=0.017000000,Units=km
new line.RML10119584 bus1=BBT97503289.1.2.0,bus2=RML210119584.1.2.0,Phases=2,Linecode=CABBTG05_4_2,Length=0.017000000,Units=km
new line.RML10180 bus1=BBT3019.1.2.0,bus2=RML200010180.1.2.0,Phases=2,Linecode=CABBTG13_4_2,Length=0.017000000,Units=km
new line.RML10185270 bus1=BBT97469059.2.0,bus2=RML210185270.2.0,Phases=1,Linecode=CABBTG02_4_1,Length=0.017000000,Units=km
new line.RML10186302 bus1=BBT54796821.2.0,bus2=RML210186302.2.0,Phases=1,Linecode=CABBTG02_4_1,Length=0.017000000,Units=km
new line.RML10186527 bus1=BBT148547383.1.0,bus2=RML210186527.1.0,Phases=1,Linecode=CABBTG02_4_1,Length=0.017000000,Units=km
new line.RML10250 bus1=BBT3040.3.0,bus2=RML200010250.3.0,Phases=1,Linecode=CABBTG01_4_1,Length=0.017000000,Units=km
new line.RML10252210 bus1=BBT3103.2.0,bus2=RML210252210.2.0,Phases=1,Linecode=CABBTG02_4_1,Length=0.017000000,Units=km
new line.RML10252744 bus1=BBT59504909.2.0,bus2=RML210252744.2.0,Phases=1,Linecode=CABBTG02_4_1,Length=0.017000000,Units=km
new line.RML10306 bus1=BBT3068.1.0,bus2=RML200010306.1.0,Phases=1,Linecode=CABBTG01_4_1,Length=0.017000000,Units=km
new line.RML10306924 bus1=BBT9494.2.0,bus2=RML210306924.2.0,Phases=1,Linecode=CABBTG02_4_1,Length=0.017000000,Units=km
new line.RML10311805 bus1=BBT97469059.1.0,bus2=RML210311805.1.0,Phases=1,Linecode=CABBTG02_4_1,Length=0.017000000,Units=km
new line.RML10364176 bus1=BBT406121.1.2.0,bus2=RML210364176.1.2.0,Phases=2,Linecode=CABBTG05_4_2,Length=0.017000000,Units=km
new line.RML10366196 bus1=BBT7569.1.0,bus2=RML210366196.1.0,Phases=1,Linecode=CABBTG02_4_1,Length=0.017000000,Units=km
new line.RML10369 bus1=BBT3082.2.0,bus2=RML200010369.2.0,Phases=1,Linecode=CABBTG01_4_1,Length=0.017000000,Units=km
new line.RML10425 bus1=BBT3103.3.0,bus2=RML200010425.3.0,Phases=1,Linecode=CABBTG01_4_1,Length=0.017000000,Units=km
new line.RML10426718 bus1=BBT394172.1.2.0,bus2=RML210426718.1.2.0,Phases=2,Linecode=CABBTG05_4_2,Length=0.017000000,Units=km
new line.RML10426998 bus1=BBT1829.3.0,bus2=RML210426998.3.0,Phases=1,Linecode=CABBTG02_4_1,Length=0.017000000,Units=km
new line.RML10482746 bus1=BBT389699.1.0,bus2=RML210482746.1.0,Phases=1,Linecode=CABBTG02_4_1,Length=0.030000000,Units=km
new line.RML10484627 bus1=BBT11895.1.2.0,bus2=RML210484627.1.2.0,Phases=2,Linecode=CABBTG05_4_2,Length=0.017000000,Units=km
new line.RML10487567 bus1=BBT110213140.2.3.0,bus2=RML210487567.2.3.0,Phases=2,Linecode=CABBTG05_4_2,Length=0.017000000,Units=km
new line.RML10487600 bus1=BBT97431938.1.2.0,bus2=RML210487600.1.2.0,Phases=2,Linecode=CABBTG05_4_2,Length=0.011000000,Units=km
new line.RML10488 bus1=BBT3110.1.2.3.0,bus2=RML200010488.1.2.3.0,Phases=3,Linecode=CABBTG06_4_3,Length=0.017000000,Units=km
new line.RML10554904 bus1=BBT5931.1.2.0,bus2=RML210554904.1.2.0,Phases=2,Linecode=CABBTG05_4_2,Length=0.017000000,Units=km
new line.RML10554911 bus1=BBT148547499.2.0,bus2=RML210554911.2.0,Phases=1,Linecode=CABBTG02_4_1,Length=0.017000000,Units=km
new line.RML10554913 bus1=BBT5476.1.2.0,bus2=RML210554913.1.2.0,Phases=2,Linecode=CABBTG05_4_2,Length=0.017000000,Units=km
new line.RML10555221 bus1=BBT148546775.1.2.0,bus2=RML210555221.1.2.0,Phases=2,Linecode=CABBTG05_4_2,Length=0.017000000,Units=km
new line.RML10005 bus1=BBT2984.1.0,bus2=RML200010005.1.0,Phases=1,Linecode=CABBTG01_4_1,Length=0.017000000,Units=km
new line.RML10012 bus1=BBT2984.2.0,bus2=RML200010012.2.0,Phases=1,Linecode=CABBTG01_4_1,Length=0.017000000,Units=km
new line.RML10019 bus1=BBT2984.3.0,bus2=RML200010019.3.0,Phases=1,Linecode=CABBTG01_4_1,Length=0.017000000,Units=km
new line.RML10023238 bus1=BBT392709.1.2.3.0,bus2=RML210023238.1.2.3.0,Phases=3,Linecode=CABBTG06_4_3,Length=0.017000000,Units=km
new line.RML10023252 bus1=BBT11685.1.0,bus2=RML210023252.1.0,Phases=1,Linecode=CABBTG01_4_1,Length=0.017000000,Units=km
new line.RML10026 bus1=BBT2984.1.0,bus2=RML200010026.1.0,Phases=1,Linecode=CABBTG01_4_1,Length=0.017000000,Units=km
new line.RML10107166 bus1=BBT389916.3.0,bus2=RML210107166.3.0,Phases=1,Linecode=CABBTG02_4_1,Length=0.017000000,Units=km
new line.RML10107181 bus1=BBT1717.1.2.0,bus2=RML210107181.1.2.0,Phases=2,Linecode=CABBTG05_4_2,Length=0.017000000,Units=km
new line.RML10107186 bus1=BBT4783.2.0,bus2=RML210107186.2.0,Phases=1,Linecode=CABBTG02_4_1,Length=0.017000000,Units=km
new line.RML10107384 bus1=BBT4566.1.2.3.0,bus2=RML210107384.1.2.3.0,Phases=3,Linecode=CABBTG06_4_3,Length=0.017000000,Units=km
new line.RML10108003 bus1=BBT97431952.1.0,bus2=RML210108003.1.0,Phases=1,Linecode=CABBTG02_4_1,Length=0.017000000,Units=km
new line.RML10108943 bus1=BBT15605.1.3.0,bus2=RML210108943.1.3.0,Phases=2,Linecode=CABBTG05_4_2,Length=0.017000000,Units=km
new line.RML10110 bus1=BBT3005.2.0,bus2=RML200010110.2.0,Phases=1,Linecode=CABBTG01_4_1,Length=0.017000000,Units=km
new line.RML10165749 bus1=BBT1598.1.2.0,bus2=RML210165749.1.2.0,Phases=2,Linecode=CABBTG05_4_2,Length=0.017000000,Units=km
new line.RML10166 bus1=BBT3012.2.0,bus2=RML200010166.2.0,Phases=1,Linecode=CABBTG01_4_1,Length=0.017000000,Units=km
new line.RML10222 bus1=BBT3033.3.0,bus2=RML200010222.3.0,Phases=1,Linecode=CABBTG01_4_1,Length=0.017000000,Units=km
new line.RML10260992 bus1=BBT14345.1.2.3.0,bus2=RML210260992.1.2.3.0,Phases=3,Linecode=CABBTG07_4_3,Length=0.017000000,Units=km
new line.RML10261511 bus1=BBT8675.1.0,bus2=RML210261511.1.0,Phases=1,Linecode=CABBTG02_4_1,Length=0.017000000,Units=km
new line.RML10261776 bus1=BBT24432.1.0,bus2=RML210261776.1.0,Phases=1,Linecode=CABBTG02_4_1,Length=0.017000000,Units=km
new line.RML10263377 bus1=BBT389832.1.2.0,bus2=RML210263377.1.2.0,Phases=2,Linecode=CABBTG04_4_2,Length=0.017000000,Units=km
new line.RML10264 bus1=BBT3040.1.2.0,bus2=RML200010264.1.2.0,Phases=2,Linecode=CABBTG05_4_2,Length=0.017000000,Units=km
new line.RML10266056 bus1=BBT12980.2.0,bus2=RML210266056.2.0,Phases=1,Linecode=CABBTG01_4_1,Length=0.017000000,Units=km
new line.RML10319546 bus1=BBT97493895.1.2.3.0,bus2=RML210319546.1.2.3.0,Phases=3,Linecode=CABBTG06_4_3,Length=0.017000000,Units=km
new line.RML10320 bus1=BBT3075.3.0,bus2=RML200010320.3.0,Phases=1,Linecode=CABBTG01_4_1,Length=0.017000000,Units=km
new line.RML10378606 bus1=BBT17684.1.2.0,bus2=RML210378606.1.2.0,Phases=2,Linecode=CABBT801_4_2,Length=0.017000000,Units=km
new line.RML10378701 bus1=BBT2046.1.0,bus2=RML210378701.1.0,Phases=1,Linecode=CABBTG02_4_1,Length=0.017000000,Units=km
new line.RML10378766 bus1=BBT148544755.2.0,bus2=RML210378766.2.0,Phases=1,Linecode=CABBTG02_4_1,Length=0.017000000,Units=km
new line.RML10383 bus1=BBT3075.1.0,bus2=RML200010383.1.0,Phases=1,Linecode=CABBTG01_4_1,Length=0.017000000,Units=km
new line.RML10385094 bus1=BBT21471.1.2.3.0,bus2=RML210385094.1.2.3.0,Phases=3,Linecode=CABBTG06_4_3,Length=0.017000000,Units=km
new line.RML10438120 bus1=BBT3012.2.0,bus2=RML210438120.2.0,Phases=1,Linecode=CABBTG02_4_1,Length=0.017000000,Units=km
new line.RML10438145 bus1=BBT7667.1.2.0,bus2=RML210438145.1.2.0,Phases=2,Linecode=CABBTG05_4_2,Length=0.017000000,Units=km
new line.RML10438151 bus1=BBT70800.1.0,bus2=RML210438151.1.0,Phases=1,Linecode=CABBTG02_4_1,Length=0.017000000,Units=km
new line.RML10439 bus1=BBT3103.1.3.0,bus2=RML200010439.1.3.0,Phases=2,Linecode=CABBTG04_4_2,Length=0.017000000,Units=km
new line.RML10442941 bus1=BBT10306.1.2.0,bus2=RML210442941.1.2.0,Phases=2,Linecode=CABBTG05_4_2,Length=0.017000000,Units=km
new line.RML10444738 bus1=BBT97431938.2.0,bus2=RML210444738.2.0,Phases=1,Linecode=CABBTG02_4_1,Length=0.017000000,Units=km
new line.RML10498262 bus1=BBT148547306.1.2.0,bus2=RML210498262.1.2.0,Phases=2,Linecode=CABBTG05_4_2,Length=0.016000000,Units=km
new line.RML10502 bus1=BBT3117.1.2.3.0,bus2=RML200010502.1.2.3.0,Phases=3,Linecode=CABBTG11_4_3,Length=0.017000000,Units=km
new line.RML10502491 bus1=BBT97503198.1.0,bus2=RML210502491.1.0,Phases=1,Linecode=CABBTG02_4_1,Length=0.012000000,Units=km
new line.RML10502527 bus1=BBT7604.1.0,bus2=RML210502527.1.0,Phases=1,Linecode=CABBTG02_4_1,Length=0.017000000,Units=km
new line.RML10502778 bus1=BBT390084.1.0,bus2=RML210502778.1.0,Phases=1,Linecode=CABBTG02_4_1,Length=0.006000000,Units=km
new line.RML10069769 bus1=BBT12511.1.2.3.0,bus2=RML210069769.1.2.3.0,Phases=3,Linecode=CABBTG11_4_3,Length=0.017000000,Units=km
new line.RML10072111 bus1=BBT1955.2.0,bus2=RML210072111.2.0,Phases=1,Linecode=CABBTG01_4_1,Length=0.017000000,Units=km
new line.RML10072153 bus1=BBT389846.1.0,bus2=RML210072153.1.0,Phases=1,Linecode=CABBTG02_4_1,Length=0.017000000,Units=km
new line.RML10072294 bus1=BBT13743.1.2.0,bus2=RML210072294.1.2.0,Phases=2,Linecode=CABBTG13_4_2,Length=0.017000000,Units=km
new line.RML10072405 bus1=BBT97498634.1.0,bus2=RML210072405.1.0,Phases=1,Linecode=CABBTG02_4_1,Length=0.017000000,Units=km
new line.RML10072690 bus1=BBT19973.1.2.3.0,bus2=RML210072690.1.2.3.0,Phases=3,Linecode=CABBTG06_4_3,Length=0.017000000,Units=km
new line.RML10072819 bus1=BBT4825.1.0,bus2=RML210072819.1.0,Phases=1,Linecode=CABBTG02_4_1,Length=0.017000000,Units=km
new line.RML10075 bus1=BBT2998.1.0,bus2=RML200010075.1.0,Phases=1,Linecode=CABBTG01_4_1,Length=0.017000000,Units=km
new line.RML10075257 bus1=BBT8136.2.0,bus2=RML210075257.2.0,Phases=1,Linecode=CABBTG01_4_1,Length=0.017000000,Units=km
new line.RML10136166 bus1=BBT10551.1.2.0,bus2=RML210136166.1.2.0,Phases=2,Linecode=CABBTG05_4_2,Length=0.017000000,Units=km
new line.RML10138 bus1=BBT3019.1.0,bus2=RML200010138.1.0,Phases=1,Linecode=CABBTG01_4_1,Length=0.017000000,Units=km
new line.RML10141857 bus1=BBT24397.1.2.3.0,bus2=RML210141857.1.2.3.0,Phases=3,Linecode=CABBTG06_4_3,Length=0.017000000,Units=km
new line.RML10201 bus1=BBT3026.1.3.0,bus2=RML200010201.1.3.0,Phases=2,Linecode=CABBTG05_4_2,Length=0.017000000,Units=km
new line.RML10238430 bus1=BBT148545538.1.0,bus2=RML210238430.1.0,Phases=1,Linecode=CABBTG02_4_1,Length=0.017000000,Units=km
new line.RML10243 bus1=BBT3033.1.0,bus2=RML200010243.1.0,Phases=1,Linecode=CABBTG01_4_1,Length=0.017000000,Units=km
new line.RML10299 bus1=BBT2501.1.2.3.0,bus2=RML200010299.1.2.3.0,Phases=3,Linecode=CABBTG06_4_3,Length=0.017000000,Units=km
new line.RML10301557 bus1=BBT77394.3.0,bus2=RML210301557.3.0,Phases=1,Linecode=CABBTG02_4_1,Length=0.017000000,Units=km
new line.RML10349166 bus1=BBT9564.1.2.0,bus2=RML210349166.1.2.0,Phases=2,Linecode=CABBTG05_4_2,Length=0.017000000,Units=km
new line.RML10349170 bus1=BBT11048.1.2.0,bus2=RML210349170.1.2.0,Phases=2,Linecode=CABBTG05_4_2,Length=0.017000000,Units=km
new line.RML10351103 bus1=BBT390105.1.2.0,bus2=RML210351103.1.2.0,Phases=2,Linecode=CABBTG05_4_2,Length=0.017000000,Units=km
new line.RML10352225 bus1=BBT2953050.2.0,bus2=RML210352225.2.0,Phases=1,Linecode=CABBTG02_4_1,Length=0.017000000,Units=km
new line.RML10353295 bus1=BBT15381.1.2.0,bus2=RML210353295.1.2.0,Phases=2,Linecode=CABBT801_4_2,Length=0.017000000,Units=km
new line.RML10355 bus1=BBT3082.1.0,bus2=RML200010355.1.0,Phases=1,Linecode=CABBTG01_4_1,Length=0.017000000,Units=km
new line.RML10410022 bus1=BBT97469059.1.2.3.0,bus2=RML210410022.1.2.3.0,Phases=3,Linecode=CABBTG06_4_3,Length=0.017000000,Units=km
new line.RML10410973 bus1=BBT389846.2.0,bus2=RML210410973.2.0,Phases=1,Linecode=CABBTG02_4_1,Length=0.017000000,Units=km
new line.RML10411 bus1=BBT3096.2.3.0,bus2=RML200010411.2.3.0,Phases=2,Linecode=CABBTG04_4_2,Length=0.017000000,Units=km
new line.RML10412350 bus1=BBT7989.1.2.0,bus2=RML210412350.1.2.0,Phases=2,Linecode=CABBTG05_4_2,Length=0.017000000,Units=km
new line.RML10468395 bus1=BBT97431938.1.0,bus2=RML210468395.1.0,Phases=1,Linecode=CABBTG02_4_1,Length=0.017000000,Units=km
new line.RML10468408 bus1=BBT97504346.1.0,bus2=RML210468408.1.0,Phases=1,Linecode=CABBTG02_4_1,Length=0.010000000,Units=km
new line.RML10470122 bus1=BBT150683428.1.2.0,bus2=RML210470122.1.2.0,Phases=2,Linecode=CABBT801_4_2,Length=0.017000000,Units=km
new line.RML10470399 bus1=BBT97493895.1.0,bus2=RML210470399.1.0,Phases=1,Linecode=CABBTG02_4_1,Length=0.017000000,Units=km
new line.RML10470401 bus1=BBT7828.1.0,bus2=RML210470401.1.0,Phases=1,Linecode=CABBTG02_4_1,Length=0.014000000,Units=km
new line.RML10470513 bus1=BBT1969.1.0,bus2=RML210470513.1.0,Phases=1,Linecode=CABBTG02_4_1,Length=0.017000000,Units=km
new line.RML10472439 bus1=BBT2375.1.2.0,bus2=RML210472439.1.2.0,Phases=2,Linecode=CABBTG05_4_2,Length=0.010000000,Units=km
new line.RML10530 bus1=BBT3131.2.0,bus2=RML200010530.2.0,Phases=1,Linecode=CABBTG01_4_1,Length=0.017000000,Units=km
new line.RML10532302 bus1=BBT97491179.1.2.3.0,bus2=RML210532302.1.2.3.0,Phases=3,Linecode=CABBTG06_4_3,Length=0.030000000,Units=km
new line.RML10534277 bus1=BBT148547359.2.0,bus2=RML210534277.2.0,Phases=1,Linecode=CABBTG02_4_1,Length=0.030000000,Units=km
new line.RML10534390 bus1=BBT19378.1.2.0,bus2=RML210534390.1.2.0,Phases=2,Linecode=CABBTG05_4_2,Length=0.017000000,Units=km
new line.RML10534474 bus1=BBT6967.1.0,bus2=RML210534474.1.0,Phases=1,Linecode=CABBTG02_4_1,Length=0.017000000,Units=km
new line.RML10047 bus1=BBT2991.1.2.0,bus2=RML200010047.1.2.0,Phases=2,Linecode=CABBTG05_4_2,Length=0.017000000,Units=km
new line.RML10048483 bus1=BBT21562.1.0,bus2=RML210048483.1.0,Phases=1,Linecode=CABBTG02_4_1,Length=0.017000000,Units=km
new line.RML10048565 bus1=BBT21555.1.2.0,bus2=RML210048565.1.2.0,Phases=2,Linecode=CABBTG05_4_2,Length=0.017000000,Units=km
new line.RML10051756 bus1=BBT8654.2.0,bus2=RML210051756.2.0,Phases=1,Linecode=CABBTG02_4_1,Length=0.017000000,Units=km
new line.RML10054 bus1=BBT2991.1.3.0,bus2=RML200010054.1.3.0,Phases=2,Linecode=CABBTG05_4_2,Length=0.017000000,Units=km
new line.RML10131 bus1=BBT3005.1.2.3.0,bus2=RML200010131.1.2.3.0,Phases=3,Linecode=CABBTG07_4_3,Length=0.017000000,Units=km
new line.RML10131822 bus1=BBT13771.1.2.3.0,bus2=RML210131822.1.2.3.0,Phases=3,Linecode=CABBTG07_4_3,Length=0.017000000,Units=km
new line.RML10133051 bus1=BBT70842.1.2.0,bus2=RML210133051.1.2.0,Phases=2,Linecode=CABBTG05_4_2,Length=0.017000000,Units=km
new line.RML10187 bus1=BBT3019.3.0,bus2=RML200010187.3.0,Phases=1,Linecode=CABBTG01_4_1,Length=0.017000000,Units=km
new line.RML10187029 bus1=BBT6407.2.0,bus2=RML210187029.2.0,Phases=1,Linecode=CABBTG02_4_1,Length=0.017000000,Units=km
new line.RML10187114 bus1=BBT9347.1.2.0,bus2=RML210187114.1.2.0,Phases=2,Linecode=CABBTG05_4_2,Length=0.017000000,Units=km
new line.RML10190512 bus1=BBT148545607.1.0,bus2=RML210190512.1.0,Phases=1,Linecode=CABBTG02_4_1,Length=0.017000000,Units=km
new line.RML10190533 bus1=BBT6400.1.0,bus2=RML210190533.1.0,Phases=1,Linecode=CABBTG02_4_1,Length=0.017000000,Units=km
new line.RML10191987 bus1=BBT8626.1.2.0,bus2=RML210191987.1.2.0,Phases=2,Linecode=CABBTG05_4_2,Length=0.017000000,Units=km
new line.RML10192257 bus1=BBT97469192.2.0,bus2=RML210192257.2.0,Phases=1,Linecode=CABBTG02_4_1,Length=0.017000000,Units=km
new line.RML10194 bus1=BBT3019.2.0,bus2=RML200010194.2.0,Phases=1,Linecode=CABBTG01_4_1,Length=0.017000000,Units=km
new line.RML10253127 bus1=BBT389916.1.0,bus2=RML210253127.1.0,Phases=1,Linecode=CABBTG02_4_1,Length=0.017000000,Units=km
new line.RML10257 bus1=BBT3040.1.0,bus2=RML200010257.1.0,Phases=1,Linecode=CABBTG01_4_1,Length=0.017000000,Units=km
new line.RML10257973 bus1=BBT97430083.2.0,bus2=RML210257973.2.0,Phases=1,Linecode=CABBTG02_4_1,Length=0.017000000,Units=km
new line.RML10257996 bus1=BBT97491179.1.0,bus2=RML210257996.1.0,Phases=1,Linecode=CABBTG02_4_1,Length=0.017000000,Units=km
new line.RML10259170 bus1=BBT8836.1.2.0,bus2=RML210259170.1.2.0,Phases=2,Linecode=CABBTG13_4_2,Length=0.017000000,Units=km
new line.RML10259402 bus1=BBT390021.1.0,bus2=RML210259402.1.0,Phases=1,Linecode=CABBTG02_4_1,Length=0.017000000,Units=km
new line.RML10259954 bus1=BBT301639.1.0,bus2=RML210259954.1.0,Phases=1,Linecode=CABBTG02_4_1,Length=0.017000000,Units=km
new line.RML10260254 bus1=BBT1955.2.0,bus2=RML210260254.2.0,Phases=1,Linecode=CABBTG02_4_1,Length=0.017000000,Units=km
new line.RML10312404 bus1=BBT355196.2.0,bus2=RML210312404.2.0,Phases=1,Linecode=CABBTG02_4_1,Length=0.017000000,Units=km
new line.RML10313 bus1=BBT22105680.1.2.3.0,bus2=RML200010313.1.2.3.0,Phases=3,Linecode=CABBTG06_4_3,Length=0.017000000,Units=km
new line.RML10374560 bus1=BBT3410976.1.0,bus2=RML210374560.1.0,Phases=1,Linecode=CABBTG02_4_1,Length=0.017000000,Units=km
new line.RML10374601 bus1=BBT97380453.1.0,bus2=RML210374601.1.0,Phases=1,Linecode=CABBTG02_4_1,Length=0.017000000,Units=km
new line.RML10376 bus1=BBT3089.3.0,bus2=RML200010376.3.0,Phases=1,Linecode=CABBTG01_4_1,Length=0.017000000,Units=km
new line.RML10430822 bus1=BBT4118.1.0,bus2=RML210430822.1.0,Phases=1,Linecode=CABBTG02_4_1,Length=0.017000000,Units=km
new line.RML10432 bus1=BBT3103.1.3.0,bus2=RML200010432.1.3.0,Phases=2,Linecode=CABBTG04_4_2,Length=0.017000000,Units=km
new line.RML10432115 bus1=BBT3026.1.2.3.0,bus2=RML210432115.1.2.3.0,Phases=3,Linecode=CABBTG06_4_3,Length=0.017000000,Units=km
new line.RML10490552 bus1=BBT148546180.1.0,bus2=RML210490552.1.0,Phases=1,Linecode=CABBT802_4_1,Length=0.011000000,Units=km
new line.RML10492142 bus1=BBT390126.2.0,bus2=RML210492142.2.0,Phases=1,Linecode=CABBT802_4_1,Length=0.006000000,Units=km
new line.RML10492811 bus1=BBT148545607.2.0,bus2=RML210492811.2.0,Phases=1,Linecode=CABBTG02_4_1,Length=0.010000000,Units=km
new line.RML10495 bus1=BBT3110.1.2.3.0,bus2=RML200010495.1.2.3.0,Phases=3,Linecode=CABBTG06_4_3,Length=0.017000000,Units=km
new line.RML10549537 bus1=BBT7555.1.2.3.0,bus2=RML210549537.1.2.3.0,Phases=3,Linecode=CABBTG06_4_3,Length=0.017000000,Units=km
new line.RML10549660 bus1=BBT148545737.3.0,bus2=RML210549660.3.0,Phases=1,Linecode=CABBTG02_4_1,Length=0.017000000,Units=km
new line.RML10549837 bus1=BBT9144.3.0,bus2=RML210549837.3.0,Phases=1,Linecode=CABBTG02_4_1,Length=0.017000000,Units=km
new line.RML10549937 bus1=BBT2704.1.2.0,bus2=RML210549937.1.2.0,Phases=2,Linecode=CABBTG05_4_2,Length=0.017000000,Units=km
new line.RML10082 bus1=BBT3005.1.2.0,bus2=RML200010082.1.2.0,Phases=2,Linecode=CABBTG05_4_2,Length=0.017000000,Units=km
new line.RML10124 bus1=BBT3005.1.2.0,bus2=RML200010124.1.2.0,Phases=2,Linecode=CABBTG05_4_2,Length=0.017000000,Units=km
new line.RML10173 bus1=BBT3012.2.0,bus2=RML200010173.2.0,Phases=1,Linecode=CABBTG02_4_1,Length=0.017000000,Units=km
new line.RML10233988 bus1=BBT2844.2.0,bus2=RML210233988.2.0,Phases=1,Linecode=CABBTG02_4_1,Length=0.017000000,Units=km
new line.RML10234872 bus1=BBT54803191.2.3.0,bus2=RML210234872.2.3.0,Phases=2,Linecode=CABBTG05_4_2,Length=0.017000000,Units=km
new line.RML10234876 bus1=BBT301632.1.0,bus2=RML210234876.1.0,Phases=1,Linecode=CABBTG02_4_1,Length=0.017000000,Units=km
new line.RML10235036 bus1=BBT389769.1.3.0,bus2=RML210235036.1.3.0,Phases=2,Linecode=CABBTG05_4_2,Length=0.017000000,Units=km
new line.RML10235243 bus1=BBT96298428.1.2.0,bus2=RML210235243.1.2.0,Phases=2,Linecode=CABBTG05_4_2,Length=0.017000000,Units=km
new line.RML10235511 bus1=BBT390014.1.2.3.0,bus2=RML210235511.1.2.3.0,Phases=3,Linecode=CABBTG06_4_3,Length=0.017000000,Units=km
new line.RML10235522 bus1=BBT390028.1.0,bus2=RML210235522.1.0,Phases=1,Linecode=CABBTG02_4_1,Length=0.017000000,Units=km
new line.RML10235543 bus1=BBT229700.1.2.0,bus2=RML210235543.1.2.0,Phases=2,Linecode=CABBTG05_4_2,Length=0.017000000,Units=km
new line.RML10235598 bus1=BBT12182.1.2.0,bus2=RML210235598.1.2.0,Phases=2,Linecode=CABBTG05_4_2,Length=0.017000000,Units=km
new line.RML10235880 bus1=BBT148544980.1.2.3.0,bus2=RML210235880.1.2.3.0,Phases=3,Linecode=CABBTG06_4_3,Length=0.017000000,Units=km
new line.RML10236 bus1=BBT3033.2.3.0,bus2=RML200010236.2.3.0,Phases=2,Linecode=CABBTG05_4_2,Length=0.017000000,Units=km
new line.RML10236930 bus1=BBT97380432.1.2.0,bus2=RML210236930.1.2.0,Phases=2,Linecode=CABBTG05_4_2,Length=0.017000000,Units=km
new line.RML10292 bus1=BBT3061.2.0,bus2=RML200010292.2.0,Phases=1,Linecode=CABBTG01_4_1,Length=0.017000000,Units=km
new line.RML10295197 bus1=BBT301702.3.0,bus2=RML210295197.3.0,Phases=1,Linecode=CABBTG02_4_1,Length=0.017000000,Units=km
new line.RML10295350 bus1=BBT7660.1.0,bus2=RML210295350.1.0,Phases=1,Linecode=CABBTG02_4_1,Length=0.017000000,Units=km
new line.RML10296230 bus1=BBT97469059.1.0,bus2=RML210296230.1.0,Phases=1,Linecode=CABBTG02_4_1,Length=0.017000000,Units=km
new line.RML10296621 bus1=BBT392625.1.2.0,bus2=RML210296621.1.2.0,Phases=2,Linecode=CABBTG05_4_2,Length=0.017000000,Units=km
new line.RML10297139 bus1=BBT97469192.3.0,bus2=RML210297139.3.0,Phases=1,Linecode=CABBTG02_4_1,Length=0.017000000,Units=km
new line.RML10342460 bus1=BBT97430083.1.0,bus2=RML210342460.1.0,Phases=1,Linecode=CABBTG02_4_1,Length=0.017000000,Units=km
new line.RML10344424 bus1=BBT389986.1.0,bus2=RML210344424.1.0,Phases=1,Linecode=CABBTG02_4_1,Length=0.017000000,Units=km
new line.RML10344771 bus1=BBT394228.1.2.0,bus2=RML210344771.1.2.0,Phases=2,Linecode=CABBTG05_4_2,Length=0.017000000,Units=km
new line.RML10344846 bus1=BBT97431938.1.2.0,bus2=RML210344846.1.2.0,Phases=2,Linecode=CABBTG05_4_2,Length=0.017000000,Units=km
new line.RML10348 bus1=BBT3082.1.0,bus2=RML200010348.1.0,Phases=1,Linecode=CABBTG02_4_1,Length=0.017000000,Units=km
new line.RML10404 bus1=BBT3096.2.0,bus2=RML200010404.2.0,Phases=1,Linecode=CABBTG01_4_1,Length=0.017000000,Units=km
new line.RML10460 bus1=BBT3110.2.3.0,bus2=RML200010460.2.3.0,Phases=2,Linecode=CABBTG04_4_2,Length=0.017000000,Units=km
new line.RML10467 bus1=BBT3110.2.0,bus2=RML200010467.2.0,Phases=1,Linecode=CABBTG01_4_1,Length=0.017000000,Units=km
new line.RML10523 bus1=BBT3131.1.0,bus2=RML200010523.1.0,Phases=1,Linecode=CABBTG01_4_1,Length=0.017000000,Units=km
new line.RML10524022 bus1=BBT3292.2.0,bus2=RML210524022.2.0,Phases=1,Linecode=CABBT802_4_1,Length=0.010000000,Units=km
new line.RML10524063 bus1=BBT150683388.1.2.0,bus2=RML210524063.1.2.0,Phases=2,Linecode=CABBTG05_4_2,Length=0.017000000,Units=km
new line.RML10524813 bus1=BBT97431938.1.0,bus2=RML210524813.1.0,Phases=1,Linecode=CABBTG02_4_1,Length=0.017000000,Units=km
new line.RML10528194 bus1=BBT3649.1.0,bus2=RML210528194.1.0,Phases=1,Linecode=CABBTG02_4_1,Length=0.017000000,Units=km
new line.RML10528270 bus1=BBT97496051.1.0,bus2=RML210528270.1.0,Phases=1,Linecode=CABBTG02_4_1,Length=0.006000000,Units=km
new line.RML10528288 bus1=BBT8654.2.0,bus2=RML210528288.2.0,Phases=1,Linecode=CABBTG02_4_1,Length=0.020000000,Units=km
new line.RML10528548 bus1=BBT390112.1.0,bus2=RML210528548.1.0,Phases=1,Linecode=CABBTG02_4_1,Length=0.017000000,Units=km
new line.RML10585085 bus1=BBT150683418.2.0,bus2=RML210585085.2.0,Phases=1,Linecode=CABBTG02_4_1,Length=0.017000000,Units=km
new line.RML10586 bus1=BBT3166.1.0,bus2=RML200010586.1.0,Phases=1,Linecode=CABBTG01_4_1,Length=0.017000000,Units=km
new line.RML10061 bus1=BBT2991.1.2.3.0,bus2=RML200010061.1.2.3.0,Phases=3,Linecode=CABBTG07_4_3,Length=0.017000000,Units=km
new line.RML10096 bus1=BBT3005.1.3.0,bus2=RML200010096.1.3.0,Phases=2,Linecode=CABBTG04_4_2,Length=0.017000000,Units=km
new line.RML10152 bus1=BBT3012.1.2.3.0,bus2=RML200010152.1.2.3.0,Phases=3,Linecode=CABBTG06_4_3,Length=0.017000000,Units=km
new line.RML10153523 bus1=BBT2960351.1.0,bus2=RML210153523.1.0,Phases=1,Linecode=CABBTG02_4_1,Length=0.017000000,Units=km
new line.RML10226401 bus1=BBT19413.1.2.3.0,bus2=RML210226401.1.2.3.0,Phases=3,Linecode=CABBTG07_4_3,Length=0.017000000,Units=km
new line.RML10229 bus1=BBT3033.2.3.0,bus2=RML200010229.2.3.0,Phases=2,Linecode=CABBTG05_4_2,Length=0.017000000,Units=km
new line.RML10282688 bus1=BBT2788.1.0,bus2=RML210282688.1.0,Phases=1,Linecode=CABBTG02_4_1,Length=0.017000000,Units=km