new line.11180 bus1=BBT4097.1.2.3.0,bus2=BBT4111.1.2.3.0,Phases=3,Linecode=BT803_BT803_4_3_4,Length=0.029950000,Units=km
new line.11201 bus1=BBT4104.1.2.3.0,bus2=BBT4118.1.2.3.0,Phases=3,Linecode=BT108_BT107_7_3_1,Length=0.033820000,Units=km
new line.11600 bus1=BBT4279.1.2.3.0,bus2=BBT4272.1.2.3.0,Phases=3,Linecode=BT803_BT803_4_3_4,Length=0.011750000,Units=km
new line.11607 bus1=BBT4258.1.2.3.0,bus2=BBT4279.1.2.3.0,Phases=3,Linecode=BT513_BT513_7_3_1,Length=0.000510000,Units=km
new line.11614 bus1=BBT4279.1.2.3.0,bus2=BBT4293.1.2.3.0,Phases=3,Linecode=BT803_BT803_4_3_4,Length=0.032430000,Units=km
new line.11992 bus1=BBT4398.1.2.3.0,bus2=BBT4384.1.2.3.0,Phases=3,Linecode=BT107_BT106_7_3_1,Length=0.027570000,Units=km
new line.11999 bus1=BBT4398.1.2.3.0,bus2=BBT4447.1.2.3.0,Phases=3,Linecode=BT803_BT803_4_3_4,Length=0.032510000,Units=km
new line.12034 bus1=BBT4405.1.2.3.0,bus2=BBT4398.1.2.3.0,Phases=3,Linecode=BT107_BT106_7_3_1,Length=0.009210000,Units=km
new line.12475 bus1=BBT4545.1.2.3.0,bus2=BBT3588594.1.2.3.0,Phases=3,Linecode=BT810_BT810_4_3_4,Length=0.023010000,Units=km
new line.12496 bus1=BBT4559.1.2.3.0,bus2=BBT4552.1.2.3.0,Phases=3,Linecode=BT108_BT107_7_3_1,Length=0.017020000,Units=km
new line.12902856 bus1=BBT3486961.1.2.3.0,bus2=BBT3486968.1.2.3.0,Phases=3,Linecode=BT810_BT810_4_3_4,Length=0.039560000,Units=km
new line.13287 bus1=BBT4818.1.2.3.0,bus2=BBT4811.1.2.3.0,Phases=3,Linecode=BT809_BT809_4_3_4,Length=0.027570000,Units=km
new line.13945 bus1=BBT5049.1.2.3.0,bus2=BBT5056.1.2.3.0,Phases=3,Linecode=BT803_BT803_4_3_4,Length=0.034690000,Units=km
new line.14680 bus1=BBT5280.1.2.0,bus2=BBT5273.1.2.0,Phases=2,Linecode=BT108_BT108_7_2_1,Length=0.033950000,Units=km
new line.14687 bus1=BBT5259.1.2.0,bus2=BBT5280.1.2.0,Phases=2,Linecode=BT518_BT518_7_2_1,Length=0.000510000,Units=km
new line.14694 bus1=BBT5280.1.2.0,bus2=BBT5287.1.2.0,Phases=2,Linecode=BT108_BT108_7_2_1,Length=0.029050000,Units=km
new line.14729 bus1=BBT5287.1.2.0,bus2=BBT5294.1.2.0,Phases=2,Linecode=BT108_BT108_7_2_1,Length=0.044660000,Units=km
new line.15436 bus1=BBT5525.1.2.3.0,bus2=BBT5532.1.2.3.0,Phases=3,Linecode=BT108_BT107_7_3_1,Length=0.018780000,Units=km
new line.15464 bus1=BBT5539.1.2.3.0,bus2=BBT5469.1.2.3.0,Phases=3,Linecode=BT809_BT809_4_3_4,Length=0.026890000,Units=km
new line.15478 bus1=BBT5560.1.2.3.0,bus2=BBT5553.1.2.3.0,Phases=3,Linecode=BT803_BT803_4_3_4,Length=0.009480000,Units=km
new line.15989471 bus1=BBT7060503.1.2.3.0,bus2=BBT7060531.1.2.3.0,Phases=3,Linecode=BT810_BT810_4_3_4,Length=0.028140000,Units=km
new line.15989478 bus1=BBT7060503.1.2.3.0,bus2=BBT7060510.1.2.3.0,Phases=3,Linecode=BT810_BT810_4_3_4,Length=0.039530000,Units=km
new line.15989485 bus1=BBT7060531.1.2.3.0,bus2=BBT7060538.1.2.3.0,Phases=3,Linecode=BT810_BT810_4_3_4,Length=0.042020000,Units=km
new line.15989492 bus1=BBT7060538.1.2.3.0,bus2=BBT7060545.1.2.3.0,Phases=3,Linecode=BT810_BT810_4_3_4,Length=0.032630000,Units=km
new line.15989499 bus1=BBT7060545.1.2.3.0,bus2=BBT7060552.1.2.3.0,Phases=3,Linecode=BT810_BT810_4_3_4,Length=0.036030000,Units=km
new line.15989506 bus1=BBT7060510.1.2.3.0,bus2=BBT7060517.1.2.3.0,Phases=3,Linecode=BT810_BT810_4_3_4,Length=0.038460000,Units=km
new line.15989513 bus1=BBT7060517.1.2.3.0,bus2=BBT7060524.1.2.3.0,Phases=3,Linecode=BT810_BT810_4_3_4,Length=0.036200000,Units=km
new line.15996 bus1=BBT5721.1.2.3.0,bus2=BBT5714.1.2.3.0,Phases=3,Linecode=BT108_BT108_7_3_1,Length=0.015800000,Units=km
new line.16003 bus1=BBT5693.1.2.3.0,bus2=BBT5721.1.2.3.0,Phases=3,Linecode=BT518_BT518_7_3_1,Length=0.000510000,Units=km
new line.16006397 bus1=BBT7192474.1.2.3.0,bus2=BBT5039309.1.2.3.0,Phases=3,Linecode=BT810_BT810_4_3_4,Length=0.018990000,Units=km
new line.16006474 bus1=BBT7192558.1.2.3.0,bus2=BBT7192565.1.2.3.0,Phases=3,Linecode=BT514_BT514_7_3_1,Length=0.000510000,Units=km
new line.16010 bus1=BBT5721.1.2.3.0,bus2=BBT5728.1.2.3.0,Phases=3,Linecode=BT108_BT108_7_3_1,Length=0.015250000,Units=km
new line.16255 bus1=BBT5763.1.2.0,bus2=BBT5805.1.2.0,Phases=2,Linecode=BT513_BT513_7_2_1,Length=0.000510000,Units=km
new line.16262 bus1=BBT5805.1.2.0,bus2=BBT5826.1.2.0,Phases=2,Linecode=BT108_BT107_7_2_1,Length=0.033750000,Units=km
new line.16269 bus1=BBT5805.1.2.0,bus2=BBT3600942.1.2.0,Phases=2,Linecode=BT108_BT107_7_2_1,Length=0.021940000,Units=km
new line.16710 bus1=BBT5973.1.2.3.0,bus2=BBT5966.1.2.3.0,Phases=3,Linecode=BT108_BT107_7_3_1,Length=0.014860000,Units=km
new line.16731 bus1=BBT5980.1.2.3.0,bus2=BBT5973.1.2.3.0,Phases=3,Linecode=BT108_BT107_7_3_1,Length=0.015800000,Units=km
new line.16738 bus1=BBT5980.1.2.3.0,bus2=BBT5987.1.2.3.0,Phases=3,Linecode=BT106_BT106_7_3_1,Length=0.008600000,Units=km
new line.16766 bus1=BBT5994.1.2.3.0,bus2=BBT5980.1.2.3.0,Phases=3,Linecode=BT803_BT803_4_3_4,Length=0.028680000,Units=km
new line.17172 bus1=BBT6120.1.2.0,bus2=BBT6127.1.2.0,Phases=2,Linecode=BT807_BT807_4_2_3,Length=0.038700000,Units=km
new line.17193 bus1=BBT6127.1.2.0,bus2=BBT6134.1.2.0,Phases=2,Linecode=BT801_BT801_4_2_3,Length=0.026240000,Units=km
new line.17216557 bus1=BBT54449432.1.2.0,bus2=BBT1528.1.2.0,Phases=2,Linecode=BT108_BT107_7_2_1,Length=0.009990000,Units=km
new line.17222297 bus1=BBT54796821.1.2.3.0,bus2=BBT3306.1.2.3.0,Phases=3,Linecode=BT108_BT107_7_3_1,Length=0.010620000,Units=km
new line.17222556 bus1=BBT54796821.2.3.0,bus2=BBT54803191.2.3.0,Phases=2,Linecode=BT808_BT808_4_2_3,Length=0.033590000,Units=km
new line.17643571 bus1=BBT77376924.1.2.3.0,bus2=BBT133211087.1.2.3.0,Phases=3,Linecode=BT518_BT518_7_3_1,Length=0.000510000,Units=km
new line.17643606 bus1=BBT77376931.1.2.0,bus2=BBT77378429.1.2.0,Phases=2,Linecode=BT807_BT807_4_2_3,Length=0.040290000,Units=km
new line.17643648 bus1=BBT77376931.1.2.0,bus2=BBT77380424.1.2.0,Phases=2,Linecode=BT807_BT807_4_2_3,Length=0.028800000,Units=km
new line.17643655 bus1=BBT77380424.1.2.0,bus2=BBT77380732.1.2.0,Phases=2,Linecode=BT807_BT807_4_2_3,Length=0.040280000,Units=km
new line.17991765 bus1=BBT96271373.1.2.3.0,bus2=BBT96273256.1.2.3.0,Phases=3,Linecode=BT803_BT803_4_3_4,Length=0.019540000,Units=km
new line.17991835 bus1=BBT96272297.1.2.3.0,bus2=BBT297929.1.2.3.0,Phases=3,Linecode=BT518_BT518_7_3_1,Length=0.000510000,Units=km
new line.17993081 bus1=BBT390070.1.2.3.0,bus2=BBT158576550.1.2.3.0,Phases=3,Linecode=BT803_BT803_4_3_4,Length=0.011560000,Units=km
new line.17993102 bus1=BBT96298428.1.2.3.0,bus2=BBT96302138.1.2.3.0,Phases=3,Linecode=BT803_BT803_4_3_4,Length=0.024810000,Units=km
new line.17998 bus1=BBT6421.1.2.3.0,bus2=BBT6407.1.2.3.0,Phases=3,Linecode=BT107_BT107_7_3_1,Length=0.039090000,Units=km
new line.18021669 bus1=BBT97375924.1.2.3.0,bus2=BBT97375931.1.2.3.0,Phases=3,Linecode=BT513_BT509_7_3_1,Length=0.000510000,Units=km
new line.18021704 bus1=BBT97375931.1.2.3.0,bus2=BBT97377268.1.2.3.0,Phases=3,Linecode=BT803_BT803_4_3_4,Length=0.045330000,Units=km
new line.18021711 bus1=BBT97377268.1.2.3.0,bus2=BBT97377275.1.2.3.0,Phases=3,Linecode=BT803_BT803_4_3_4,Length=0.038190000,Units=km
new line.18021718 bus1=BBT97377275.1.2.3.0,bus2=BBT97378668.1.2.3.0,Phases=3,Linecode=BT803_BT803_4_3_4,Length=0.025860000,Units=km
new line.18021732 bus1=BBT97378668.1.2.3.0,bus2=BBT97379081.1.2.3.0,Phases=3,Linecode=BT810_BT810_4_3_4,Length=0.024780000,Units=km
new line.18021739 bus1=BBT97379081.1.2.3.0,bus2=BBT97379739.1.2.3.0,Phases=3,Linecode=BT810_BT810_4_3_4,Length=0.021220000,Units=km
new line.18021746 bus1=BBT97379739.1.2.3.0,bus2=BBT97379746.1.2.3.0,Phases=3,Linecode=BT810_BT810_4_3_4,Length=0.031420000,Units=km
new line.18021760 bus1=BBT97379746.1.2.3.0,bus2=BBT97380432.1.2.3.0,Phases=3,Linecode=BT810_BT810_4_3_4,Length=0.037930000,Units=km
new line.18021767 bus1=BBT97380432.1.2.3.0,bus2=BBT97380453.1.2.3.0,Phases=3,Linecode=BT810_BT810_4_3_4,Length=0.050570000,Units=km
new line.18021774 bus1=BBT97380453.1.2.3.0,bus2=BBT97380460.1.2.3.0,Phases=3,Linecode=BT810_BT810_4_3_4,Length=0.051890000,Units=km
new line.18021781 bus1=BBT97380460.1.2.3.0,bus2=BBT97380467.1.2.3.0,Phases=3,Linecode=BT810_BT810_4_3_4,Length=0.018960000,Units=km
new line.18021900 bus1=BBT110188269.1.2.3.0,bus2=BBT97384912.1.2.3.0,Phases=3,Linecode=BT803_BT803_4_3_4,Length=0.036180000,Units=km
new line.18022362 bus1=BBT97384912.1.2.3.0,bus2=BBT97402678.1.2.3.0,Phases=3,Linecode=BT803_BT803_4_3_4,Length=0.031260000,Units=km
new line.18022369 bus1=BBT97402678.1.2.3.0,bus2=BBT97402685.1.2.3.0,Phases=3,Linecode=BT803_BT803_4_3_4,Length=0.029680000,Units=km
new line.18022376 bus1=BBT97402685.1.2.3.0,bus2=BBT97402930.1.2.3.0,Phases=3,Linecode=BT810_BT810_4_3_4,Length=0.037030000,Units=km
new line.18022551 bus1=BBT97402930.1.2.3.0,bus2=BBT97412485.1.2.3.0,Phases=3,Linecode=BT810_BT810_4_3_4,Length=0.040020000,Units=km
new line.18022558 bus1=BBT97412485.1.2.3.0,bus2=BBT97412492.1.2.3.0,Phases=3,Linecode=BT810_BT810_4_3_4,Length=0.030050000,Units=km
new line.18022565 bus1=BBT97412492.1.2.3.0,bus2=BBT97412667.1.2.3.0,Phases=3,Linecode=BT810_BT810_4_3_4,Length=0.022080000,Units=km
new line.18022572 bus1=BBT110200218.1.2.3.0,bus2=BBT97412674.1.2.3.0,Phases=3,Linecode=BT810_BT810_4_3_4,Length=0.023330000,Units=km
new line.18022698 bus1=BBT97412674.1.2.3.0,bus2=BBT97415579.1.2.3.0,Phases=3,Linecode=BT810_BT810_4_3_4,Length=0.028630000,Units=km
new line.18022936 bus1=BBT97421571.1.2.3.0,bus2=BBT97421578.1.2.3.0,Phases=3,Linecode=BT518_BT518_7_3_1,Length=0.000510000,Units=km
new line.18022943 bus1=BBT97421578.1.2.3.0,bus2=BBT97421676.1.2.3.0,Phases=3,Linecode=BT803_BT803_4_3_4,Length=0.025060000,Units=km
new line.18022950 bus1=BBT97421676.1.2.3.0,bus2=BBT97421690.1.2.3.0,Phases=3,Linecode=BT803_BT803_4_3_4,Length=0.030390000,Units=km
new line.18022957 bus1=BBT97421578.1.2.3.0,bus2=BBT97422005.1.2.3.0,Phases=3,Linecode=BT803_BT803_4_3_4,Length=0.031120000,Units=km
new line.18022964 bus1=BBT97422005.1.2.3.0,bus2=BBT97422012.1.2.3.0,Phases=3,Linecode=BT803_BT803_4_3_4,Length=0.029050000,Units=km
new line.18022971 bus1=BBT97422012.1.2.3.0,bus2=BBT97422019.1.2.3.0,Phases=3,Linecode=BT803_BT803_4_3_4,Length=0.033520000,Units=km
new line.18023020 bus1=BBT97421690.1.2.3.0,bus2=BBT97424371.1.2.3.0,Phases=3,Linecode=BT810_BT810_4_3_4,Length=0.039800000,Units=km
new line.18023034 bus1=BBT97424371.1.2.3.0,bus2=BBT97424483.1.2.3.0,Phases=3,Linecode=BT810_BT810_4_3_4,Length=0.029810000,Units=km
new line.18023048 bus1=BBT97421690.1.2.3.0,bus2=BBT97424504.1.2.3.0,Phases=3,Linecode=BT810_BT810_4_3_4,Length=0.041100000,Units=km
new line.18023055 bus1=BBT97424504.1.2.3.0,bus2=BBT97424525.1.2.3.0,Phases=3,Linecode=BT810_BT810_4_3_4,Length=0.034000000,Units=km
new line.18023083 bus1=BBT97424525.1.2.3.0,bus2=BBT97424672.1.2.3.0,Phases=3,Linecode=BT810_BT810_4_3_4,Length=0.036440000,Units=km
new line.18023090 bus1=BBT97424672.1.2.3.0,bus2=BBT97424679.1.2.3.0,Phases=3,Linecode=BT810_BT810_4_3_4,Length=0.040780000,Units=km
new line.18023097 bus1=BBT97424679.1.2.3.0,bus2=BBT97424686.1.2.3.0,Phases=3,Linecode=BT810_BT810_4_3_4,Length=0.039360000,Units=km
new line.18023104 bus1=BBT97424686.1.2.3.0,bus2=BBT97424819.1.2.3.0,Phases=3,Linecode=BT810_BT810_4_3_4,Length=0.026080000,Units=km
new line.18023167 bus1=BBT97422019.1.2.3.0,bus2=BBT97430083.1.2.3.0,Phases=3,Linecode=BT810_BT810_4_3_4,Length=0.024980000,Units=km
new line.18023230 bus1=BBT97430083.1.2.3.0,bus2=BBT97431623.1.2.3.0,Phases=3,Linecode=BT810_BT810_4_3_4,Length=0.040980000,Units=km
new line.18023237 bus1=BBT97431623.1.2.3.0,bus2=BBT97431630.1.2.3.0,Phases=3,Linecode=BT810_BT810_4_3_4,Length=0.034990000,Units=km
new line.18023244 bus1=BBT97430083.1.2.3.0,bus2=BBT97431931.1.2.3.0,Phases=3,Linecode=BT810_BT810_4_3_4,Length=0.047060000,Units=km
new line.18023251 bus1=BBT97431931.1.2.3.0,bus2=BBT97431938.1.2.3.0,Phases=3,Linecode=BT810_BT810_4_3_4,Length=0.027280000,Units=km
new line.18023258 bus1=BBT97431938.1.2.3.0,bus2=BBT97431945.1.2.3.0,Phases=3,Linecode=BT810_BT810_4_3_4,Length=0.033080000,Units=km
new line.18023265 bus1=BBT110213140.1.2.3.0,bus2=BBT97431952.1.2.3.0,Phases=3,Linecode=BT810_BT810_4_3_4,Length=0.025540000,Units=km
new line.18024336 bus1=BBT97460533.1.2.3.0,bus2=BBT97460540.1.2.3.0,Phases=3,Linecode=BT518_BT518_7_3_1,Length=0.000510000,Units=km
new line.18024448 bus1=BBT97460540.1.2.3.0,bus2=BBT97466700.1.2.3.0,Phases=3,Linecode=BT803_BT803_4_3_4,Length=0.027220000,Units=km
new line.18024455 bus1=BBT97466700.1.2.3.0,bus2=BBT97466707.1.2.3.0,Phases=3,Linecode=BT803_BT803_4_3_4,Length=0.038330000,Units=km
new line.18024462 bus1=BBT97466707.1.2.3.0,bus2=BBT97467337.1.2.3.0,Phases=3,Linecode=BT803_BT803_4_3_4,Length=0.041070000,Units=km
new line.18024476 bus1=BBT97467337.1.2.3.0,bus2=BBT97468744.1.2.3.0,Phases=3,Linecode=BT810_BT810_4_3_4,Length=0.024780000,Units=km
new line.18024483 bus1=BBT97468744.1.2.3.0,bus2=BBT97468751.1.2.3.0,Phases=3,Linecode=BT810_BT810_4_3_4,Length=0.034430000,Units=km
new line.18024490 bus1=BBT97468751.1.2.3.0,bus2=BBT97468758.1.2.3.0,Phases=3,Linecode=BT810_BT810_4_3_4,Length=0.025220000,Units=km
new line.18024504 bus1=BBT97460540.1.2.3.0,bus2=BBT97468786.1.2.3.0,Phases=3,Linecode=BT803_BT803_4_3_4,Length=0.035100000,Units=km
new line.18024518 bus1=BBT97468786.1.2.3.0,bus2=BBT97468989.1.2.3.0,Phases=3,Linecode=BT803_BT803_4_3_4,Length=0.032070000,Units=km
new line.18024525 bus1=BBT97468989.1.2.3.0,bus2=BBT97468996.1.2.3.0,Phases=3,Linecode=BT803_BT803_4_3_4,Length=0.039030000,Units=km
new line.18024532 bus1=BBT97468996.1.2.3.0,bus2=BBT97469003.1.2.3.0,Phases=3,Linecode=BT810_BT810_4_3_4,Length=0.029650000,Units=km
new line.18024553 bus1=BBT97469003.1.2.3.0,bus2=BBT97469059.1.2.3.0,Phases=3,Linecode=BT810_BT810_4_3_4,Length=0.026640000,Units=km
new line.18024560 bus1=BBT97469059.1.2.3.0,bus2=BBT97469115.1.2.3.0,Phases=3,Linecode=BT810_BT810_4_3_4,Length=0.043030000,Units=km
new line.18024567 bus1=BBT97469115.1.2.3.0,bus2=BBT97469122.1.2.3.0,Phases=3,Linecode=BT810_BT810_4_3_4,Length=0.038870000,Units=km
new line.18024574 bus1=BBT97469122.1.2.3.0,bus2=BBT97469178.1.2.3.0,Phases=3,Linecode=BT810_BT810_4_3_4,Length=0.045280000,Units=km
new line.18024581 bus1=BBT97468786.1.2.3.0,bus2=BBT97469185.1.2.3.0,Phases=3,Linecode=BT810_BT810_4_3_4,Length=0.039670000,Units=km
new line.18024588 bus1=BBT97469185.1.2.3.0,bus2=BBT97469192.1.2.3.0,Phases=3,Linecode=BT810_BT810_4_3_4,Length=0.030320000,Units=km
new line.18024595 bus1=BBT97469192.1.2.3.0,bus2=BBT97469199.1.2.3.0,Phases=3,Linecode=BT810_BT810_4_3_4,Length=0.050330000,Units=km
new line.18024805 bus1=BBT97467337.1.2.3.0,bus2=BBT97479895.1.2.3.0,Phases=3,Linecode=BT803_BT803_4_3_4,Length=0.023320000,Units=km
new line.18024812 bus1=BBT97479895.1.2.3.0,bus2=BBT97479902.1.2.3.0,Phases=3,Linecode=BT803_BT803_4_3_4,Length=0.031240000,Units=km
new line.18024819 bus1=BBT97479902.1.2.3.0,bus2=BBT97479909.1.2.3.0,Phases=3,Linecode=BT803_BT803_4_3_4,Length=0.029490000,Units=km
new line.18024826 bus1=BBT97479909.1.2.3.0,bus2=BBT97479916.1.2.3.0,Phases=3,Linecode=BT803_BT803_4_3_4,Length=0.031360000,Units=km
new line.18024833 bus1=BBT97479916.1.2.3.0,bus2=BBT97479923.1.2.3.0,Phases=3,Linecode=BT803_BT803_4_3_4,Length=0.033490000,Units=km
new line.11019 bus1=BBT4062.1.2.3.0,bus2=BBT4055.1.2.3.0,Phases=3,Linecode=BT803_BT803_4_3_4,Length=0.022350000,Units=km
new line.11026 bus1=BBT4062.1.2.3.0,bus2=BBT4069.1.2.3.0,Phases=3,Linecode=BT803_BT803_4_3_4,Length=0.036760000,Units=km
new line.11478139 bus1=BBT3016960.1.2.3.0,bus2=BBT5707.1.2.3.0,Phases=3,Linecode=BT803_BT803_4_3_4,Length=0.025790000,Units=km
new line.11478146 bus1=BBT3016960.1.2.3.0,bus2=BBT5700.1.2.3.0,Phases=3,Linecode=BT108_BT107_7_3_1,Length=0.029980000,Units=km
new line.11478153 bus1=BBT3016960.1.2.3.0,bus2=BBT3016967.1.2.3.0,Phases=3,Linecode=BT108_BT107_7_3_1,Length=0.005000000,Units=km
new line.11852 bus1=BBT4335.1.2.0,bus2=BBT4342.1.2.0,Phases=2,Linecode=BT807_BT807_4_2_3,Length=0.022980000,Units=km
new line.12104 bus1=BBT4433.1.3.0,bus2=BBT4412.1.3.0,Phases=2,Linecode=BT519_BT519_5_2_1,Length=0.006320000,Units=km
new line.12111 bus1=BBT4433.1.3.0,bus2=BBT4426.1.3.0,Phases=2,Linecode=BT519_BT519_5_2_1,Length=0.006080000,Units=km
new line.12118 bus1=BBT4433.1.3.0,bus2=BBT4440.1.3.0,Phases=2,Linecode=BT519_BT519_5_2_1,Length=0.004120000,Units=km
new line.12125 bus1=BBT4433.1.3.0,bus2=BBT4454.1.3.0,Phases=2,Linecode=BT519_BT519_5_2_1,Length=0.006000000,Units=km
new line.12524 bus1=BBT4566.1.2.3.0,bus2=BBT4559.1.2.3.0,Phases=3,Linecode=BT108_BT107_7_3_1,Length=0.017020000,Units=km
new line.12531 bus1=BBT4573.1.2.3.0,bus2=BBT4566.1.2.3.0,Phases=3,Linecode=BT108_BT107_7_3_1,Length=0.032510000,Units=km
new line.12538 bus1=BBT4538.1.2.3.0,bus2=BBT4573.1.2.3.0,Phases=3,Linecode=BT513_BT513_7_3_1,Length=0.000510000,Units=km
new line.12545 bus1=BBT4573.1.2.3.0,bus2=BBT4580.1.2.3.0,Phases=3,Linecode=BT507_BT507_5_3_1,Length=0.026890000,Units=km
new line.12552 bus1=BBT4573.1.2.3.0,bus2=BBT4587.1.2.3.0,Phases=3,Linecode=BT108_BT107_7_3_1,Length=0.030390000,Units=km
new line.12562019 bus1=BBT3364118.1.2.3.0,bus2=BBT301674.1.2.3.0,Phases=3,Linecode=BT803_BT803_4_3_4,Length=0.023110000,Units=km
new line.13028 bus1=BBT4741.1.2.0,bus2=BBT4727.1.2.0,Phases=2,Linecode=BT802_BT802_4_2_3,Length=0.030410000,Units=km
new line.13035 bus1=BBT4713.1.2.0,bus2=BBT4741.1.2.0,Phases=2,Linecode=BT518_BT518_7_2_1,Length=0.000510000,Units=km
new line.13042 bus1=BBT4741.1.2.0,bus2=BBT4748.1.2.0,Phases=2,Linecode=BT802_BT802_4_2_3,Length=0.029680000,Units=km
new line.13063 bus1=BBT4748.1.2.0,bus2=BBT4755.1.2.0,Phases=2,Linecode=BT802_BT802_4_2_3,Length=0.030390000,Units=km
new line.13392 bus1=BBT4853.1.2.3.0,bus2=BBT4846.1.2.3.0,Phases=3,Linecode=BT108_BT107_7_3_1,Length=0.029180000,Units=km
new line.13399 bus1=BBT4797.1.2.3.0,bus2=BBT4853.1.2.3.0,Phases=3,Linecode=BT513_BT513_7_3_1,Length=0.000510000,Units=km
new line.13406 bus1=BBT4853.1.2.3.0,bus2=BBT4860.1.2.3.0,Phases=3,Linecode=BT108_BT107_7_3_1,Length=0.040780000,Units=km
new line.13427 bus1=BBT4860.1.2.3.0,bus2=BBT4867.1.2.3.0,Phases=3,Linecode=BT108_BT107_7_3_1,Length=0.024500000,Units=km
new line.13658 bus1=BBT4944.1.2.3.0,bus2=BBT4951.1.2.3.0,Phases=3,Linecode=BT108_BT107_7_3_1,Length=0.033350000,Units=km
new line.13686 bus1=BBT4951.1.2.3.0,bus2=BBT4958.1.2.3.0,Phases=3,Linecode=BT108_BT107_7_3_1,Length=0.029260000,Units=km
new line.13700 bus1=BBT4958.1.2.3.0,bus2=BBT4965.1.2.3.0,Phases=3,Linecode=BT108_BT107_7_3_1,Length=0.033350000,Units=km
new line.14330 bus1=BBT5189.1.2.0,bus2=BBT5182.1.2.0,Phases=2,Linecode=BT108_BT107_7_2_1,Length=0.028140000,Units=km
new line.14358 bus1=BBT5196.1.2.0,bus2=BBT5189.1.2.0,Phases=2,Linecode=BT805_BT805_4_2_4,Length=0.040440000,Units=km
new line.14365 bus1=BBT5154.1.2.0,bus2=BBT5196.1.2.0,Phases=2,Linecode=BT513_BT513_7_2_1,Length=0.000510000,Units=km
new line.14372 bus1=BBT5196.1.2.0,bus2=BBT72569919.1.2.0,Phases=2,Linecode=BT805_BT805_4_2_4,Length=0.018470000,Units=km
new line.14897 bus1=BBT164214785.1.2.0,bus2=BBT164214820.1.2.0,Phases=2,Linecode=BT108_BT107_7_2_1,Length=0.037450000,Units=km
new line.15310 bus1=BBT5497.1.2.3.0,bus2=BBT5490.1.2.3.0,Phases=3,Linecode=BT108_BT107_7_3_1,Length=0.034860000,Units=km
new line.15317 bus1=BBT5462.1.2.3.0,bus2=BBT5497.1.2.3.0,Phases=3,Linecode=BT513_BT513_7_3_1,Length=0.000510000,Units=km
new line.15324 bus1=BBT5497.1.2.3.0,bus2=BBT5504.1.2.3.0,Phases=3,Linecode=BT108_BT107_7_3_1,Length=0.042030000,Units=km
new line.15345 bus1=BBT5504.1.2.3.0,bus2=BBT5511.1.2.3.0,Phases=3,Linecode=BT108_BT107_7_3_1,Length=0.032260000,Units=km
new line.15624575 bus1=BBT5641274.1.2.3.0,bus2=BBT5641281.1.2.3.0,Phases=3,Linecode=BT810_BT810_4_3_4,Length=0.047010000,Units=km
new line.15633703 bus1=BBT5672368.1.2.0,bus2=BBT5672375.1.2.0,Phases=2,Linecode=BT808_BT808_4_2_3,Length=0.035330000,Units=km
new line.16087 bus1=BBT6778.1.2.3.0,bus2=BBT6771.1.2.3.0,Phases=3,Linecode=BT809_BT809_4_3_4,Length=0.034630000,Units=km
new line.16094 bus1=BBT5742.1.2.3.0,bus2=BBT3606234.1.2.3.0,Phases=3,Linecode=BT809_BT809_4_3_4,Length=0.021920000,Units=km
new line.16096333 bus1=BBT7670000.1.2.0,bus2=BBT7670007.1.2.0,Phases=2,Linecode=BT808_BT808_4_2_3,Length=0.045960000,Units=km
new line.16096340 bus1=BBT7670007.1.2.0,bus2=BBT7670014.1.2.0,Phases=2,Linecode=BT808_BT808_4_2_3,Length=0.044080000,Units=km
new line.16479 bus1=BBT5868.1.2.0,bus2=BBT5882.1.2.0,Phases=2,Linecode=BT518_BT518_7_2_1,Length=0.000510000,Units=km
new line.16486 bus1=BBT5882.1.2.0,bus2=BBT5889.1.2.0,Phases=2,Linecode=BT807_BT807_4_2_3,Length=0.034640000,Units=km
new line.16493 bus1=BBT5882.1.2.0,bus2=BBT5896.1.2.0,Phases=2,Linecode=BT807_BT807_4_2_3,Length=0.035350000,Units=km
new line.16514 bus1=BBT5889.1.2.0,bus2=BBT5875.1.2.0,Phases=2,Linecode=BT801_BT801_4_2_3,Length=0.026790000,Units=km
new line.16864 bus1=BBT6022.1.2.3.0,bus2=BBT6015.1.2.3.0,Phases=3,Linecode=BT809_BT809_4_3_4,Length=0.023620000,Units=km
new line.16871 bus1=BBT6022.1.2.3.0,bus2=BBT6029.1.2.3.0,Phases=3,Linecode=BT803_BT803_4_3_4,Length=0.022500000,Units=km
new line.16878 bus1=BBT6022.1.2.3.0,bus2=BBT6036.1.2.3.0,Phases=3,Linecode=BT108_BT107_7_3_1,Length=0.036070000,Units=km
new line.17361 bus1=BBT7548.1.2.3.0,bus2=BBT7527.1.2.3.0,Phases=3,Linecode=BT805_BT803_4_3_4,Length=0.037620000,Units=km
new line.17361520 bus1=BBT62270133.1.2.3.0,bus2=BBT13953.1.2.3.0,Phases=3,Linecode=BT803_BT803_4_3_4,Length=0.027490000,Units=km
new line.17375 bus1=BBT6197.1.2.0,bus2=BBT6190.1.2.0,Phases=2,Linecode=BT802_BT802_4_2_3,Length=0.033450000,Units=km
new line.17765203 bus1=BBT83614435.1.2.0,bus2=BBT430964.1.2.0,Phases=2,Linecode=BT807_BT807_4_2_3,Length=0.024010000,Units=km
new line.17765749 bus1=BBT83633559.1.2.0,bus2=BBT6372.1.2.0,Phases=2,Linecode=BT107_BT107_7_2_1,Length=0.019120000,Units=km
new line.17766631 bus1=BBT2960449.1.2.0,bus2=BBT83665129.1.2.0,Phases=2,Linecode=BT808_BT808_4_2_3,Length=0.017210000,Units=km
new line.17766638 bus1=BBT83665129.1.2.0,bus2=BBT83665171.1.2.0,Phases=2,Linecode=BT808_BT808_4_2_3,Length=0.025970000,Units=km
new line.17768472 bus1=BBT7009.1.2.0,bus2=BBT83778711.1.2.0,Phases=2,Linecode=BT808_BT808_4_2_3,Length=0.022680000,Units=km
new line.18166 bus1=BBT6491.1.2.3.0,bus2=BBT6484.1.2.3.0,Phases=3,Linecode=BT108_BT107_7_3_1,Length=0.026540000,Units=km
new line.18171756 bus1=BBT97375931.1.2.3.0,bus2=BBT110188269.1.2.3.0,Phases=3,Linecode=BT803_BT803_4_3_4,Length=0.034330000,Units=km
new line.18172106 bus1=BBT110198706.1.2.3.0,bus2=BBT97496184.1.2.3.0,Phases=3,Linecode=BT810_BT810_4_3_4,Length=0.021780000,Units=km
new line.18172120 bus1=BBT97412667.1.2.3.0,bus2=BBT110200218.1.2.3.0,Phases=3,Linecode=BT810_BT810_4_3_4,Length=0.027180000,Units=km
new line.18172190 bus1=BBT97431945.1.2.3.0,bus2=BBT110213140.1.2.3.0,Phases=3,Linecode=BT810_BT810_4_3_4,Length=0.023010000,Units=km
new line.18187 bus1=BBT6498.1.2.3.0,bus2=BBT6477.1.2.3.0,Phases=3,Linecode=BT108_BT107_7_3_1,Length=0.035140000,Units=km
new line.11740 bus1=BBT4300.1.2.3.0,bus2=BBT4307.1.2.3.0,Phases=3,Linecode=BT803_BT803_4_3_4,Length=0.028840000,Units=km
new line.11782 bus1=BBT4307.1.2.3.0,bus2=BBT4321.1.2.3.0,Phases=3,Linecode=BT803_BT803_4_3_4,Length=0.031360000,Units=km
new line.12209 bus1=BBT4461.1.3.0,bus2=BBT4468.1.3.0,Phases=2,Linecode=BT519_BT519_5_2_1,Length=0.005100000,Units=km
new line.12216 bus1=BBT4461.1.3.0,bus2=BBT4475.1.3.0,Phases=2,Linecode=BT519_BT519_5_2_1,Length=0.005100000,Units=km
new line.12643 bus1=BBT4608.1.2.3.0,bus2=BBT4615.1.2.3.0,Phases=3,Linecode=BT809_BT809_4_3_4,Length=0.021570000,Units=km
new line.12664 bus1=BBT4615.1.2.3.0,bus2=BBT4622.1.2.3.0,Phases=3,Linecode=BT809_BT809_4_3_4,Length=0.027870000,Units=km
new line.12695894 bus1=BBT3411067.1.2.3.0,bus2=BBT57360102.1.2.3.0,Phases=3,Linecode=BT803_BT803_4_3_4,Length=0.018810000,Units=km
new line.13201742 bus1=BBT3600774.1.2.0,bus2=BBT5812.1.2.0,Phases=2,Linecode=BT108_BT108_7_2_1,Length=0.021590000,Units=km
new line.13202106 bus1=BBT3600942.1.2.0,bus2=BBT5798.1.2.0,Phases=2,Linecode=BT108_BT107_7_2_1,Length=0.015760000,Units=km
new line.13203 bus1=BBT394200.1.2.3.0,bus2=BBT394207.1.2.3.0,Phases=3,Linecode=BT111_BT108_7_3_1,Length=0.034620000,Units=km
new line.13214972 bus1=BBT3605758.1.2.3.0,bus2=BBT8899.1.2.3.0,Phases=3,Linecode=BT108_BT107_7_3_1,Length=0.018370000,Units=km
new line.13238 bus1=BBT4811.1.2.3.0,bus2=BBT4804.1.2.3.0,Phases=3,Linecode=BT809_BT809_4_3_4,Length=0.026170000,Units=km
new line.13812 bus1=BBT5007.1.2.3.0,bus2=BBT5000.1.2.3.0,Phases=3,Linecode=BT108_BT107_7_3_1,Length=0.028620000,Units=km
new line.13819 bus1=BBT5007.1.2.3.0,bus2=BBT5014.1.2.3.0,Phases=3,Linecode=BT108_BT108_7_3_1,Length=0.028000000,Units=km
new line.13847 bus1=BBT5014.1.2.3.0,bus2=BBT5021.1.2.3.0,Phases=3,Linecode=BT809_BT809_4_3_4,Length=0.014310000,Units=km
new line.14540 bus1=BBT5238.1.2.0,bus2=BBT5245.1.2.0,Phases=2,Linecode=BT801_BT801_4_2_3,Length=0.026950000,Units=km
new line.14546057 bus1=BBT4237921.1.2.0,bus2=BBT12224.1.2.0,Phases=2,Linecode=BT108_BT107_7_2_1,Length=0.018100000,Units=km
new line.14546064 bus1=BBT4237921.1.2.0,bus2=BBT4237928.1.2.0,Phases=2,Linecode=BT808_BT808_4_2_3,Length=0.044070000,Units=km
new line.14546085 bus1=BBT4237928.1.2.0,bus2=BBT4237935.1.2.0,Phases=2,Linecode=BT808_BT808_4_2_3,Length=0.039270000,Units=km
new line.14546092 bus1=BBT4237928.1.2.0,bus2=BBT4237949.1.2.0,Phases=2,Linecode=BT808_BT808_4_2_3,Length=0.035980000,Units=km
new line.14546099 bus1=BBT4237928.1.2.0,bus2=BBT4237963.1.2.0,Phases=2,Linecode=BT808_BT808_4_2_3,Length=0.040220000,Units=km
new line.14546134 bus1=BBT4237949.1.2.0,bus2=BBT4237956.1.2.0,Phases=2,Linecode=BT808_BT808_4_2_3,Length=0.039290000,Units=km
new line.14546155 bus1=BBT4237963.1.2.0,bus2=BBT4237970.1.2.0,Phases=2,Linecode=BT808_BT808_4_2_3,Length=0.034630000,Units=km
new line.14546183 bus1=BBT4237970.1.2.0,bus2=BBT5672368.1.2.0,Phases=2,Linecode=BT808_BT808_4_2_3,Length=0.035670000,Units=km
new line.14546190 bus1=BBT4237970.1.2.0,bus2=BBT6637416.1.2.0,Phases=2,Linecode=BT808_BT808_4_2_3,Length=0.031000000,Units=km
new line.14603 bus1=BBT5252.1.2.0,bus2=BBT5231.1.2.0,Phases=2,Linecode=BT106_BT106_7_2_1,Length=0.011310000,Units=km
new line.14992076 bus1=BBT4851548.1.2.0,bus2=BBT4851555.1.2.0,Phases=2,Linecode=BT808_BT808_4_2_3,Length=0.037340000,Units=km
new line.15373 bus1=BBT5511.1.2.3.0,bus2=BBT5518.1.2.3.0,Phases=3,Linecode=BT108_BT107_7_3_1,Length=0.022810000,Units=km
new line.15408 bus1=BBT5518.1.2.3.0,bus2=BBT5525.1.2.3.0,Phases=3,Linecode=BT108_BT107_7_3_1,Length=0.027570000,Units=km
new line.16199 bus1=BBT5784.1.2.0,bus2=BBT3600774.1.2.0,Phases=2,Linecode=BT108_BT108_7_2_1,Length=0.014280000,Units=km
new line.16220 bus1=BBT5791.1.2.0,bus2=BBT5819.1.2.0,Phases=2,Linecode=BT106_BT106_7_2_1,Length=0.032320000,Units=km
new line.16241 bus1=BBT5798.1.2.0,bus2=BBT5777.1.2.0,Phases=2,Linecode=BT108_BT107_7_2_1,Length=0.039070000,Units=km
new line.16640 bus1=BBT5931.1.2.0,bus2=BBT5945.1.2.0,Phases=2,Linecode=BT808_BT808_4_2_3,Length=0.045710000,Units=km
new line.16650558 bus1=BBT8164.1.2.0,bus2=BBT32696127.1.2.0,Phases=2,Linecode=BT808_BT808_4_2_3,Length=0.011680000,Units=km
new line.16675 bus1=BBT5938.1.2.0,bus2=BBT30935767.1.2.0,Phases=2,Linecode=BT808_BT808_4_2_3,Length=0.024110000,Units=km
new line.16696 bus1=BBT5945.1.2.0,bus2=BBT5938.1.2.0,Phases=2,Linecode=BT808_BT808_4_2_3,Length=0.029860000,Units=km
new line.17116 bus1=BBT6106.1.2.0,bus2=BBT6092.1.2.0,Phases=2,Linecode=BT106_BT106_7_2_1,Length=0.037670000,Units=km
new line.17123 bus1=BBT6106.1.2.0,bus2=BBT6099.1.2.0,Phases=2,Linecode=BT807_BT807_4_2_3,Length=0.032180000,Units=km
new line.17137 bus1=BBT6113.1.2.0,bus2=BBT6106.1.2.0,Phases=2,Linecode=BT807_BT807_4_2_3,Length=0.025890000,Units=km
new line.17144 bus1=BBT6057.1.2.0,bus2=BBT6113.1.2.0,Phases=2,Linecode=BT513_BT513_7_2_1,Length=0.000510000,Units=km
new line.17151 bus1=BBT6113.1.2.0,bus2=BBT6120.1.2.0,Phases=2,Linecode=BT807_BT807_4_2_3,Length=0.037370000,Units=km
new line.17940434 bus1=BBT9417.1.2.0,bus2=BBT94208151.1.2.0,Phases=2,Linecode=BT808_BT808_4_2_3,Length=0.015010000,Units=km
new line.17963 bus1=BBT6414.1.2.3.0,bus2=BBT6400.1.2.3.0,Phases=3,Linecode=BT108_BT107_7_3_1,Length=0.030470000,Units=km
new line.17970 bus1=BBT6344.1.2.3.0,bus2=BBT6414.1.2.3.0,Phases=3,Linecode=BT513_BT513_7_3_1,Length=0.000510000,Units=km
new line.17977 bus1=BBT6414.1.2.3.0,bus2=BBT6435.1.2.3.0,Phases=3,Linecode=BT108_BT107_7_3_1,Length=0.035340000,Units=km
new line.18256568 bus1=BBT7779.1.2.3.0,bus2=BBT114894495.1.2.3.0,Phases=3,Linecode=BT108_BT107_7_3_1,Length=0.031020000,Units=km
new line.18256729 bus1=BBT114908229.1.2.0,bus2=BBT6519.1.2.0,Phases=2,Linecode=BT518_BT518_7_2_1,Length=0.000510000,Units=km
new line.18285 bus1=BBT6540.1.2.3.0,bus2=BBT6533.1.2.3.0,Phases=3,Linecode=BT108_BT108_7_3_1,Length=0.031120000,Units=km
new line.18699357 bus1=BBT148544710.1.2.3.0,bus2=BBT148544711.1.2.3.0,Phases=3,Linecode=BT518_BT518_7_3_1,Length=0.000510000,Units=km
new line.18699360 bus1=BBT148544731.1.2.3.0,bus2=BBT148544732.1.2.3.0,Phases=3,Linecode=BT518_BT518_7_3_1,Length=0.000510000,Units=km
new line.18699362 bus1=BBT148544754.1.2.3.0,bus2=BBT148544755.1.2.3.0,Phases=3,Linecode=BT518_BT518_7_3_1,Length=0.000510000,Units=km
new line.18699363 bus1=BBT148544776.1.2.3.0,bus2=BBT148544777.1.2.3.0,Phases=3,Linecode=BT518_BT518_7_3_1,Length=0.000510000,Units=km
new line.18699366 bus1=BBT148544777.1.2.3.0,bus2=BBT148544880.1.2.3.0,Phases=3,Linecode=BT803_BT803_4_3_4,Length=0.040220000,Units=km
new line.18699368 bus1=BBT148544777.1.2.3.0,bus2=BBT148544892.1.2.3.0,Phases=3,Linecode=BT803_BT803_4_3_4,Length=0.038560000,Units=km
new line.18699370 bus1=BBT148544892.1.2.3.0,bus2=BBT148544893.1.2.3.0,Phases=3,Linecode=BT803_BT803_4_3_4,Length=0.028630000,Units=km
new line.18699372 bus1=BBT148544880.1.2.3.0,bus2=BBT148544913.1.2.3.0,Phases=3,Linecode=BT803_BT803_4_3_4,Length=0.028630000,Units=km
new line.18699373 bus1=BBT148544913.1.2.3.0,bus2=BBT148544950.1.2.3.0,Phases=3,Linecode=BT803_BT803_4_3_4,Length=0.034460000,Units=km