new load.3001160101M1 bus1=RML200011328.1.3.0,Phases=2,kv=0.22,kW=0.46254,pf=0.92,Vminpu=0.92,Vmaxpu=1.5,model=1,daily=RES1_1,status=variable
new load.3001160102M1 bus1=RML200011342.1.2.3.0,Phases=3,kv=0.22,kW=0.84254,pf=0.92,Vminpu=0.92,Vmaxpu=1.5,model=1,daily=RES1_6,status=variable
new load.3001160103M1 bus1=RML200011342.1.2.3.0,Phases=3,kv=0.22,kW=0.11094,pf=0.92,Vminpu=0.92,Vmaxpu=1.5,model=1,daily=RES1_18,status=variable
new load.3001160104M1 bus1=RML200011174.1.0,Phases=1,kv=0.127,kW=0.77506,pf=0.92,Vminpu=0.92,Vmaxpu=1.5,model=1,daily=RES2_17,status=variable
new load.3001160105M1 bus1=RML200011174.1.0,Phases=1,kv=0.127,kW=0.20898,pf=0.92,Vminpu=0.92,Vmaxpu=1.5,model=1,daily=COM1_23,status=variable
new load.3001160106M1 bus1=RML200011181.3.0,Phases=1,kv=0.127,kW=1.8454,pf=0.92,Vminpu=0.92,Vmaxpu=1.5,model=1,daily=RES2_4,status=variable
new load.3001160107M1 bus1=RML200011188.2.3.0,Phases=2,kv=0.22,kW=0.0501,pf=0.92,Vminpu=0.92,Vmaxpu=1.5,model=1,daily=RES2_2,status=variable
new load.3001160108M1 bus1=RML200011209.1.2.3.0,Phases=3,kv=0.22,kW=0.02228,pf=0.92,Vminpu=0.92,Vmaxpu=1.5,model=1,daily=RES1_10,status=variable
new load.3001160109M1 bus1=RML200011209.1.2.3.0,Phases=3,kv=0.22,kW=1.20244,pf=0.92,Vminpu=0.92,Vmaxpu=1.5,model=1,daily=RES2_2,status=variable
new load.3001160110M1 bus1=RML200011209.1.2.3.0,Phases=3,kv=0.22,kW=0.21586,pf=0.92,Vminpu=0.92,Vmaxpu=1.5,model=1,daily=RES1_14,status=variable
new load.3001160111M1 bus1=RML200011195.1.2.3.0,Phases=3,kv=0.22,kW=0.71472,pf=0.92,Vminpu=0.92,Vmaxpu=1.5,model=1,daily=RES2_18,status=variable
new load.3001160112M1 bus1=RML200011202.1.2.3.0,Phases=3,kv=0.22,kW=1.31678,pf=0.92,Vminpu=0.92,Vmaxpu=1.5,model=1,daily=RES2_4,status=variable
new load.3001160125M1 bus1=RML200011223.2.0,Phases=1,kv=0.127,kW=1.16038,pf=0.92,Vminpu=0.92,Vmaxpu=1.5,model=1,daily=RES2_11,status=variable
new load.3001160126M1 bus1=RML200011216.3.0,Phases=1,kv=0.127,kW=1.14918,pf=0.92,Vminpu=0.92,Vmaxpu=1.5,model=1,daily=RES2_14,status=variable
new load.3001160127M1 bus1=RML200011216.3.0,Phases=1,kv=0.127,kW=0.87464,pf=0.92,Vminpu=0.92,Vmaxpu=1.5,model=1,daily=RES2_4,status=variable
new load.3001160128M1 bus1=RML200011335.1.0,Phases=1,kv=0.127,kW=1.187,pf=0.92,Vminpu=0.92,Vmaxpu=1.5,model=1,daily=RES2_5,status=variable
new load.3001160129M1 bus1=RML200011335.1.0,Phases=1,kv=0.127,kW=0.96232,pf=0.92,Vminpu=0.92,Vmaxpu=1.5,model=1,daily=RES2_14,status=variable
new load.3001160146M1 bus1=RML200011349.1.2.3.0,Phases=3,kv=0.22,kW=1.5696,pf=0.92,Vminpu=0.92,Vmaxpu=1.5,model=1,daily=RES2_14,status=variable
new load.3001160147M1 bus1=RML200011391.3.0,Phases=1,kv=0.127,kW=0.66126,pf=0.92,Vminpu=0.92,Vmaxpu=1.5,model=1,daily=RES1_16,status=variable
new load.3001160148M1 bus1=RML200011398.3.0,Phases=1,kv=0.127,kW=1.13802,pf=0.92,Vminpu=0.92,Vmaxpu=1.5,model=1,daily=RES2_2,status=variable
new load.3001160149M1 bus1=RML200011426.1.0,Phases=1,kv=0.127,kW=0.45202,pf=0.92,Vminpu=0.92,Vmaxpu=1.5,model=1,daily=RES1_1,status=variable
new load.3001160150M1 bus1=RML200011419.1.2.3.0,Phases=3,kv=0.22,kW=0.53216,pf=0.92,Vminpu=0.92,Vmaxpu=1.5,model=1,daily=RES2_22,status=variable
new load.3001160151M1 bus1=RML200011405.1.2.3.0,Phases=3,kv=0.22,kW=1.12734,pf=0.92,Vminpu=0.92,Vmaxpu=1.5,model=1,daily=RES1_6,status=variable
new load.3001160152M1 bus1=RML200011475.1.3.0,Phases=2,kv=0.22,kW=0.81186,pf=0.92,Vminpu=0.92,Vmaxpu=1.5,model=1,daily=RES2_5,status=variable
new load.3001160153M1 bus1=RML200011482.1.0,Phases=1,kv=0.127,kW=1.38406,pf=0.92,Vminpu=0.92,Vmaxpu=1.5,model=1,daily=RES2_4,status=variable
new load.3001160154M1 bus1=RML200011503.1.0,Phases=1,kv=0.127,kW=1.19952,pf=0.92,Vminpu=0.92,Vmaxpu=1.5,model=1,daily=RES2_20,status=variable
new load.3001160155M1 bus1=RML200011496.2.0,Phases=1,kv=0.127,kW=0.49214,pf=0.92,Vminpu=0.92,Vmaxpu=1.5,model=1,daily=RES2_16,status=variable
new load.3001160156M1 bus1=RML200011524.1.2.3.0,Phases=3,kv=0.22,kW=0.38916,pf=0.92,Vminpu=0.92,Vmaxpu=1.5,model=1,daily=RES2_27,status=variable
new load.3001160264M1 bus1=RML200011517.1.0,Phases=1,kv=0.127,kW=1.02862,pf=0.92,Vminpu=0.92,Vmaxpu=1.5,model=1,daily=RES1_16,status=variable
new load.3001160265M1 bus1=RML200011461.1.0,Phases=1,kv=0.127,kW=0.72832,pf=0.92,Vminpu=0.92,Vmaxpu=1.5,model=1,daily=RES1_26,status=variable
new load.3001160266M1 bus1=RML200011489.2.0,Phases=1,kv=0.127,kW=0.44186,pf=0.92,Vminpu=0.92,Vmaxpu=1.5,model=1,daily=RES1_2,status=variable
new load.3001160267M1 bus1=RML200011468.1.2.3.0,Phases=3,kv=0.22,kW=1.6972,pf=0.92,Vminpu=0.92,Vmaxpu=1.5,model=1,daily=RES1_11,status=variable
new load.3001160268M1 bus1=RML200011454.1.2.3.0,Phases=3,kv=0.22,kW=0.35234,pf=0.92,Vminpu=0.92,Vmaxpu=1.5,model=1,daily=COM1_8,status=variable
new load.3001160269M1 bus1=RML200011412.3.0,Phases=1,kv=0.127,kW=0.19256,pf=0.92,Vminpu=0.92,Vmaxpu=1.5,model=1,daily=RES2_17,status=variable
new load.3001160270M1 bus1=RML200011433.3.0,Phases=1,kv=0.127,kW=0.15892,pf=0.92,Vminpu=0.92,Vmaxpu=1.5,model=1,daily=RES1_18,status=variable
new load.3001160271M1 bus1=RML200011440.1.2.0,Phases=2,kv=0.22,kW=0.97066,pf=0.92,Vminpu=0.92,Vmaxpu=1.5,model=1,daily=RES1_13,status=variable
new load.3001160274M1 bus1=RML200011384.1.0,Phases=1,kv=0.127,kW=0.93188,pf=0.92,Vminpu=0.92,Vmaxpu=1.5,model=1,daily=RES2_19,status=variable
new load.3001160275M1 bus1=RML200011384.1.0,Phases=1,kv=0.127,kW=1.49496,pf=0.92,Vminpu=0.92,Vmaxpu=1.5,model=1,daily=RES2_5,status=variable
new load.3001160276M1 bus1=RML200011377.3.0,Phases=1,kv=0.127,kW=1.18416,pf=0.92,Vminpu=0.92,Vmaxpu=1.5,model=1,daily=RES1_3,status=variable
new load.3001160278M1 bus1=RML200011363.2.0,Phases=1,kv=0.127,kW=0.55204,pf=0.92,Vminpu=0.92,Vmaxpu=1.5,model=1,daily=COM1_11,status=variable
new load.3001160279M1 bus1=RML200011356.2.0,Phases=1,kv=0.127,kW=4.2625,pf=0.92,Vminpu=0.92,Vmaxpu=1.5,model=1,daily=RES1_13,status=variable
new load.3001160280M1 bus1=RML200011279.1.2.0,Phases=2,kv=0.22,kW=0.18832,pf=0.92,Vminpu=0.92,Vmaxpu=1.5,model=1,daily=RES1_19,status=variable
new load.3001160281M1 bus1=RML200011307.1.2.3.0,Phases=3,kv=0.22,kW=1.07442,pf=0.92,Vminpu=0.92,Vmaxpu=1.5,model=1,daily=RES2_14,status=variable
new load.3001160282M1 bus1=RML200011300.1.0,Phases=1,kv=0.127,kW=1.12328,pf=0.92,Vminpu=0.92,Vmaxpu=1.5,model=1,daily=RES2_1,status=variable
new load.3001160284M1 bus1=RML200011293.1.2.3.0,Phases=3,kv=0.22,kW=1.22388,pf=0.92,Vminpu=0.92,Vmaxpu=1.5,model=1,daily=RES1_13,status=variable
new load.3001160285M1 bus1=RML200011286.2.3.0,Phases=2,kv=0.22,kW=0.42928,pf=0.92,Vminpu=0.92,Vmaxpu=1.5,model=1,daily=RES1_21,status=variable
new load.3001160287M1 bus1=RML200011251.3.0,Phases=1,kv=0.127,kW=0.4161,pf=0.92,Vminpu=0.92,Vmaxpu=1.5,model=1,daily=RES1_17,status=variable
new load.3001160313M1 bus1=RML200013540.1.0,Phases=1,kv=0.127,kW=0.57852,pf=0.92,Vminpu=0.92,Vmaxpu=1.5,model=1,daily=RES1_8,status=variable
new load.3001160077M1 bus1=RML200017978.3.0,Phases=1,kv=0.127,kW=0.12256,pf=0.92,Vminpu=0.92,Vmaxpu=1.5,model=1,daily=RES1_19,status=variable
new load.3001160311M1 bus1=RML200013477.2.3.0,Phases=2,kv=0.22,kW=3.26918,pf=0.92,Vminpu=0.92,Vmaxpu=1.5,model=1,daily=RES4_11,status=variable
new load.3001160130M1 bus1=RML200013372.1.0,Phases=1,kv=0.127,kW=1.1544,pf=0.92,Vminpu=0.92,Vmaxpu=1.5,model=1,daily=RES3_14,status=variable
new load.3001160132M1 bus1=RML200013372.1.0,Phases=1,kv=0.127,kW=0.7687,pf=0.92,Vminpu=0.92,Vmaxpu=1.5,model=1,daily=RES2_20,status=variable
new load.3001160133M1 bus1=RML208905310.3.0,Phases=1,kv=0.127,kW=1.25598,pf=0.92,Vminpu=0.92,Vmaxpu=1.5,model=1,daily=RES2_13,status=variable
new load.3001160079M1 bus1=RML200017957.1.2.3.0,Phases=3,kv=0.22,kW=0.01314,pf=0.92,Vminpu=0.92,Vmaxpu=1.5,model=1,daily=RES1_8,status=variable
new load.3001160080M1 bus1=RML200017957.1.2.3.0,Phases=3,kv=0.22,kW=0.27886,pf=0.92,Vminpu=0.92,Vmaxpu=1.5,model=1,daily=RES1_18,status=variable
new load.3001160081M1 bus1=RML200017957.1.2.3.0,Phases=3,kv=0.22,kW=0.9461,pf=0.92,Vminpu=0.92,Vmaxpu=1.5,model=1,daily=RES1_1,status=variable
new load.3001160082M1 bus1=RML200013596.1.0,Phases=1,kv=0.127,kW=1.0554,pf=0.92,Vminpu=0.92,Vmaxpu=1.5,model=1,daily=RES2_1,status=variable
new load.3001160083M1 bus1=RML200013603.1.2.0,Phases=2,kv=0.22,kW=0.73908,pf=0.92,Vminpu=0.92,Vmaxpu=1.5,model=1,daily=RES2_5,status=variable
new load.3001160084M1 bus1=RML200013554.3.0,Phases=1,kv=0.127,kW=0.0347,pf=0.92,Vminpu=0.92,Vmaxpu=1.5,model=1,daily=RES1_7,status=variable
new load.3001160085M1 bus1=RML200013547.1.3.0,Phases=2,kv=0.22,kW=0.61288,pf=0.92,Vminpu=0.92,Vmaxpu=1.5,model=1,daily=RES1_10,status=variable
new load.3001160087M1 bus1=RML200013568.2.3.0,Phases=2,kv=0.22,kW=0.93272,pf=0.92,Vminpu=0.92,Vmaxpu=1.5,model=1,daily=RES2_10,status=variable
new load.3001160088M1 bus1=RML200013498.2.0,Phases=1,kv=0.127,kW=0.51278,pf=0.92,Vminpu=0.92,Vmaxpu=1.5,model=1,daily=RES1_8,status=variable
new load.3001160089M1 bus1=RML200013512.2.0,Phases=1,kv=0.127,kW=2.31442,pf=0.92,Vminpu=0.92,Vmaxpu=1.5,model=1,daily=RES2_6,status=variable
new load.3001160090M1 bus1=RML200013449.1.2.3.0,Phases=3,kv=0.22,kW=0.25486,pf=0.92,Vminpu=0.92,Vmaxpu=1.5,model=1,daily=RES1_18,status=variable
new load.3001160092M1 bus1=RML200013421.3.0,Phases=1,kv=0.127,kW=1.08792,pf=0.92,Vminpu=0.92,Vmaxpu=1.5,model=1,daily=RES2_2,status=variable
new load.3001160093M1 bus1=RML200013428.1.2.0,Phases=2,kv=0.22,kW=0.4847,pf=0.92,Vminpu=0.92,Vmaxpu=1.5,model=1,daily=RES3_5,status=variable
new load.3001160095M1 bus1=RML200013407.2.0,Phases=1,kv=0.127,kW=0.70156,pf=0.92,Vminpu=0.92,Vmaxpu=1.5,model=1,daily=RES1_14,status=variable
new load.3001160096M1 bus1=RML200013414.1.3.0,Phases=2,kv=0.22,kW=0.72462,pf=0.92,Vminpu=0.92,Vmaxpu=1.5,model=1,daily=RES2_23,status=variable
new load.3001160097M1 bus1=RML200013393.1.2.0,Phases=2,kv=0.22,kW=1.15634,pf=0.92,Vminpu=0.92,Vmaxpu=1.5,model=1,daily=RES1_1,status=variable
new load.3001160098M1 bus1=RML200013400.1.0,Phases=1,kv=0.127,kW=0.16518,pf=0.92,Vminpu=0.92,Vmaxpu=1.5,model=1,daily=COM1_4,status=variable
new load.3001160099M1 bus1=RML200013365.2.3.0,Phases=2,kv=0.22,kW=2.0268,pf=0.92,Vminpu=0.92,Vmaxpu=1.5,model=1,daily=RES2_21,status=variable
new load.3001160100M1 bus1=RML200013379.1.2.0,Phases=2,kv=0.22,kW=0.34368,pf=0.92,Vminpu=0.92,Vmaxpu=1.5,model=1,daily=RES1_2,status=variable
new load.3001160615M1 bus1=RML200016214.1.2.3.0,Phases=3,kv=0.22,kW=3.13334,pf=0.92,Vminpu=0.92,Vmaxpu=1.5,model=1,daily=RES2_4,status=variable
new load.3001160555M1 bus1=RML200016235.3.0,Phases=1,kv=0.127,kW=1.49688,pf=0.92,Vminpu=0.92,Vmaxpu=1.5,model=1,daily=RES3_15,status=variable
new load.3001160556M1 bus1=RML200016242.2.3.0,Phases=2,kv=0.22,kW=1.2654,pf=0.92,Vminpu=0.92,Vmaxpu=1.5,model=1,daily=RES2_5,status=variable
new load.3001160557M1 bus1=RML200016249.1.0,Phases=1,kv=0.127,kW=1.05842,pf=0.92,Vminpu=0.92,Vmaxpu=1.5,model=1,daily=RES2_19,status=variable
new load.3001160559M1 bus1=RML200016277.1.2.3.0,Phases=3,kv=0.22,kW=0.628,pf=0.92,Vminpu=0.92,Vmaxpu=1.5,model=1,daily=RES2_25,status=variable
new load.3001160560M1 bus1=RML200016298.1.0,Phases=1,kv=0.127,kW=0.67274,pf=0.92,Vminpu=0.92,Vmaxpu=1.5,model=1,daily=RES2_1,status=variable
new load.3001160561M1 bus1=RML200016319.1.2.3.0,Phases=3,kv=0.22,kW=1.69128,pf=0.92,Vminpu=0.92,Vmaxpu=1.5,model=1,daily=COM1_20,status=variable
new load.3001160562M1 bus1=RML200016333.1.2.3.0,Phases=3,kv=0.22,kW=0.94606,pf=0.92,Vminpu=0.92,Vmaxpu=1.5,model=1,daily=RES2_10,status=variable
new load.3001160564M1 bus1=RML200016340.1.3.0,Phases=2,kv=0.22,kW=1.4445,pf=0.92,Vminpu=0.92,Vmaxpu=1.5,model=1,daily=RES2_20,status=variable
new load.3001160566M1 bus1=RML200016382.2.0,Phases=1,kv=0.127,kW=0.8235,pf=0.92,Vminpu=0.92,Vmaxpu=1.5,model=1,daily=RES1_11,status=variable
new load.3001160567M1 bus1=RML200016410.1.0,Phases=1,kv=0.127,kW=0.77762,pf=0.92,Vminpu=0.92,Vmaxpu=1.5,model=1,daily=RES3_20,status=variable
new load.3001160572M1 bus1=RML200016417.1.2.3.0,Phases=3,kv=0.22,kW=0.85696,pf=0.92,Vminpu=0.92,Vmaxpu=1.5,model=1,daily=RES2_6,status=variable
new load.3001160573M1 bus1=RML200016389.3.0,Phases=1,kv=0.127,kW=0.46284,pf=0.92,Vminpu=0.92,Vmaxpu=1.5,model=1,daily=RES1_23,status=variable
new load.3001160574M1 bus1=RML200016389.3.0,Phases=1,kv=0.127,kW=0.8636,pf=0.92,Vminpu=0.92,Vmaxpu=1.5,model=1,daily=RES2_7,status=variable
new load.3001160575M1 bus1=RML200016473.1.2.3.0,Phases=3,kv=0.22,kW=0.00716,pf=0.92,Vminpu=0.92,Vmaxpu=1.5,model=1,daily=COM1_25,status=variable
new load.3001160578M1 bus1=RML200016501.1.2.3.0,Phases=3,kv=0.22,kW=0.17526,pf=0.92,Vminpu=0.92,Vmaxpu=1.5,model=1,daily=COM1_19,status=variable
new load.3001160579M1 bus1=RML200016501.1.2.3.0,Phases=3,kv=0.22,kW=0.3247,pf=0.92,Vminpu=0.92,Vmaxpu=1.5,model=1,daily=RES2_27,status=variable
new load.3001160580M1 bus1=RML200016529.1.2.0,Phases=2,kv=0.22,kW=0.92366,pf=0.92,Vminpu=0.92,Vmaxpu=1.5,model=1,daily=RES1_16,status=variable
new load.3001160581M1 bus1=RML200016522.3.0,Phases=1,kv=0.127,kW=1.50234,pf=0.92,Vminpu=0.92,Vmaxpu=1.5,model=1,daily=RES1_2,status=variable
new load.3001160583M1 bus1=RML200016543.1.2.3.0,Phases=3,kv=0.22,kW=4.95208,pf=0.92,Vminpu=0.92,Vmaxpu=1.5,model=1,daily=RES6_14,status=variable
new load.3001160584M1 bus1=RML210757853.3.0,Phases=1,kv=0.127,kW=0.53794,pf=0.92,Vminpu=0.92,Vmaxpu=1.5,model=1,daily=RES2_6,status=variable
new load.3001160585M1 bus1=RML200016557.3.0,Phases=1,kv=0.127,kW=1.12328,pf=0.92,Vminpu=0.92,Vmaxpu=1.5,model=1,daily=RES2_1,status=variable
new load.3001160587M1 bus1=RML200016613.1.2.3.0,Phases=3,kv=0.22,kW=0.15704,pf=0.92,Vminpu=0.92,Vmaxpu=1.5,model=1,daily=RES1_25,status=variable
new load.3001160588M1 bus1=RML200016613.1.2.3.0,Phases=3,kv=0.22,kW=1.08138,pf=0.92,Vminpu=0.92,Vmaxpu=1.5,model=1,daily=RES2_7,status=variable
new load.3001160589M1 bus1=RML200016613.1.2.3.0,Phases=3,kv=0.22,kW=0.74136,pf=0.92,Vminpu=0.92,Vmaxpu=1.5,model=1,daily=RES2_17,status=variable
new load.3001160590M1 bus1=RML200016613.1.2.3.0,Phases=3,kv=0.22,kW=0.3407,pf=0.92,Vminpu=0.92,Vmaxpu=1.5,model=1,daily=RES2_28,status=variable
new load.3001160591M1 bus1=RML200016613.1.2.3.0,Phases=3,kv=0.22,kW=0.35148,pf=0.92,Vminpu=0.92,Vmaxpu=1.5,model=1,daily=RES2_22,status=variable
new load.3001160592M1 bus1=RML200016613.1.2.3.0,Phases=3,kv=0.22,kW=0.98342,pf=0.92,Vminpu=0.92,Vmaxpu=1.5,model=1,daily=RES3_17,status=variable
new load.3001160593M1 bus1=RML200016613.1.2.3.0,Phases=3,kv=0.22,kW=1.19528,pf=0.92,Vminpu=0.92,Vmaxpu=1.5,model=1,daily=RES2_2,status=variable
new load.3001160594M1 bus1=RML200016613.1.2.3.0,Phases=3,kv=0.22,kW=0.66984,pf=0.92,Vminpu=0.92,Vmaxpu=1.5,model=1,daily=RES3_19,status=variable
new load.3001160597M1 bus1=RML200016585.1.2.3.0,Phases=3,kv=0.22,kW=1.13904,pf=0.92,Vminpu=0.92,Vmaxpu=1.5,model=1,daily=RES1_2,status=variable
new load.3001160598M1 bus1=RML200016585.1.2.3.0,Phases=3,kv=0.22,kW=1.11766,pf=0.92,Vminpu=0.92,Vmaxpu=1.5,model=1,daily=RES2_16,status=variable
new load.3001160599M1 bus1=RML200016571.1.0,Phases=1,kv=0.127,kW=1.09742,pf=0.92,Vminpu=0.92,Vmaxpu=1.5,model=1,daily=RES2_5,status=variable
new load.3001160602M1 bus1=RML200016648.1.2.3.0,Phases=3,kv=0.22,kW=0.2483,pf=0.92,Vminpu=0.92,Vmaxpu=1.5,model=1,daily=RES2_27,status=variable
new load.3001160603M1 bus1=RML200016655.1.2.3.0,Phases=3,kv=0.22,kW=1.2591,pf=0.92,Vminpu=0.92,Vmaxpu=1.5,model=1,daily=RES2_4,status=variable
new load.3001160604M1 bus1=RML200016662.3.0,Phases=1,kv=0.127,kW=0.66226,pf=0.92,Vminpu=0.92,Vmaxpu=1.5,model=1,daily=RES1_1,status=variable
new load.3001160605M1 bus1=RML200016662.3.0,Phases=1,kv=0.127,kW=0.49968,pf=0.92,Vminpu=0.92,Vmaxpu=1.5,model=1,daily=RES2_10,status=variable
new load.3001160606M1 bus1=RML200016669.1.0,Phases=1,kv=0.127,kW=0.14486,pf=0.92,Vminpu=0.92,Vmaxpu=1.5,model=1,daily=RES1_10,status=variable
new load.3001160607M1 bus1=RML200016683.1.2.3.0,Phases=3,kv=0.22,kW=0.18996,pf=0.92,Vminpu=0.92,Vmaxpu=1.5,model=1,daily=IND1_10,status=variable
new load.3001160312M1 bus1=RML200016459.1.2.0,Phases=2,kv=0.22,kW=0.46318,pf=0.92,Vminpu=0.92,Vmaxpu=1.5,model=1,daily=RES2_22,status=variable
new load.3001160292M1 bus1=RML200016676.1.2.3.0,Phases=3,kv=0.22,kW=0.19238,pf=0.92,Vminpu=0.92,Vmaxpu=1.5,model=1,daily=COM1_11,status=variable
new load.3001160294M1 bus1=RML200016627.1.3.0,Phases=2,kv=0.22,kW=0.88114,pf=0.92,Vminpu=0.92,Vmaxpu=1.5,model=1,daily=RES1_25,status=variable
new load.3001160296M1 bus1=RML200016606.1.3.0,Phases=2,kv=0.22,kW=4.69232,pf=0.92,Vminpu=0.92,Vmaxpu=1.5,model=1,daily=RES3_8,status=variable
new load.3001160297M1 bus1=RML200016578.2.0,Phases=1,kv=0.127,kW=1.38122,pf=0.92,Vminpu=0.92,Vmaxpu=1.5,model=1,daily=RES3_7,status=variable
new load.3001160298M1 bus1=RML200016592.1.0,Phases=1,kv=0.127,kW=0.60256,pf=0.92,Vminpu=0.92,Vmaxpu=1.5,model=1,daily=RES1_11,status=variable
new load.3001160299M1 bus1=RML200016599.3.0,Phases=1,kv=0.127,kW=0.54006,pf=0.92,Vminpu=0.92,Vmaxpu=1.5,model=1,daily=RES1_2,status=variable
new load.3001160301M1 bus1=RML200016564.2.0,Phases=1,kv=0.127,kW=1.69696,pf=0.92,Vminpu=0.92,Vmaxpu=1.5,model=1,daily=RES3_3,status=variable
new load.3001160304M1 bus1=RML200016508.1.2.3.0,Phases=3,kv=0.22,kW=1.16032,pf=0.92,Vminpu=0.92,Vmaxpu=1.5,model=1,daily=RES2_1,status=variable
new load.3001160305M1 bus1=RML200016487.1.3.0,Phases=2,kv=0.22,kW=1.77812,pf=0.92,Vminpu=0.92,Vmaxpu=1.5,model=1,daily=RES2_4,status=variable
new load.3001160309M1 bus1=RML200016396.1.0,Phases=1,kv=0.127,kW=0.88168,pf=0.92,Vminpu=0.92,Vmaxpu=1.5,model=1,daily=RES1_16,status=variable
new load.3001160310M1 bus1=RML200016424.1.2.3.0,Phases=3,kv=0.22,kW=1.07382,pf=0.92,Vminpu=0.92,Vmaxpu=1.5,model=1,daily=RES4_15,status=variable
new load.3001160314M1 bus1=RML200016347.1.0,Phases=1,kv=0.127,kW=1.59564,pf=0.92,Vminpu=0.92,Vmaxpu=1.5,model=1,daily=RES4_8,status=variable
new load.3001160316M1 bus1=RML200016375.1.2.3.0,Phases=3,kv=0.22,kW=0.94914,pf=0.92,Vminpu=0.92,Vmaxpu=1.5,model=1,daily=RES2_19,status=variable
new load.3001160317M1 bus1=RML200016361.1.0,Phases=1,kv=0.127,kW=1.25686,pf=0.92,Vminpu=0.92,Vmaxpu=1.5,model=1,daily=RES1_2,status=variable
new load.3001160318M1 bus1=RML200016354.1.2.0,Phases=2,kv=0.22,kW=0.4962,pf=0.92,Vminpu=0.92,Vmaxpu=1.5,model=1,daily=RES2_23,status=variable
new load.3001160319M1 bus1=RML200016326.1.2.3.0,Phases=3,kv=0.22,kW=0.5576,pf=0.92,Vminpu=0.92,Vmaxpu=1.5,model=1,daily=RES3_11,status=variable
new load.3001160321M1 bus1=RML200016312.1.2.0,Phases=2,kv=0.22,kW=1.86462,pf=0.92,Vminpu=0.92,Vmaxpu=1.5,model=1,daily=RES2_4,status=variable
new load.3001160322M1 bus1=RML200016305.1.2.0,Phases=2,kv=0.22,kW=0.13746,pf=0.92,Vminpu=0.92,Vmaxpu=1.5,model=1,daily=RES1_2,status=variable
new load.3001160325M1 bus1=RML200016291.1.0,Phases=1,kv=0.127,kW=1.6789,pf=0.92,Vminpu=0.92,Vmaxpu=1.5,model=1,daily=RES2_10,status=variable
new load.3001160326M1 bus1=RML200016284.1.2.3.0,Phases=3,kv=0.22,kW=1.15808,pf=0.92,Vminpu=0.92,Vmaxpu=1.5,model=1,daily=RES1_15,status=variable
new load.3001160327M1 bus1=RML200016284.1.2.3.0,Phases=3,kv=0.22,kW=0.67754,pf=0.92,Vminpu=0.92,Vmaxpu=1.5,model=1,daily=RES1_2,status=variable
new load.3001160159M1 bus1=RML200017537.2.0,Phases=1,kv=0.12,kW=1.0357,pf=0.92,Vminpu=0.92,Vmaxpu=1.5,model=1,daily=RES1_4,status=variable
new load.3001160161M1 bus1=RML200017565.2.0,Phases=1,kv=0.12,kW=0.22418,pf=0.92,Vminpu=0.92,Vmaxpu=1.5,model=1,daily=RES1_19,status=variable
new load.3001160162M1 bus1=RML200017579.1.2.0,Phases=2,kv=0.24,kW=0.67826,pf=0.92,Vminpu=0.92,Vmaxpu=1.5,model=1,daily=RES1_20,status=variable
new load.3001160163M1 bus1=RML200017614.2.0,Phases=1,kv=0.12,kW=1.37596,pf=0.92,Vminpu=0.92,Vmaxpu=1.5,model=1,daily=RES2_9,status=variable
new load.3001160164M1 bus1=RML200017600.1.0,Phases=1,kv=0.12,kW=0.8413,pf=0.92,Vminpu=0.92,Vmaxpu=1.5,model=1,daily=RES1_10,status=variable
new load.3001160165M1 bus1=RML200017621.1.2.0,Phases=2,kv=0.24,kW=0.56618,pf=0.92,Vminpu=0.92,Vmaxpu=1.5,model=1,daily=RES1_22,status=variable
new load.3001160166M1 bus1=RML200017649.2.0,Phases=1,kv=0.12,kW=0.9011,pf=0.92,Vminpu=0.92,Vmaxpu=1.5,model=1,daily=RES2_1,status=variable
new load.3001160169M1 bus1=RML200017684.2.0,Phases=1,kv=0.12,kW=0.80262,pf=0.92,Vminpu=0.92,Vmaxpu=1.5,model=1,daily=RES1_25,status=variable
new load.3001160247M1 bus1=RML200017698.1.0,Phases=1,kv=0.12,kW=2.40286,pf=0.92,Vminpu=0.92,Vmaxpu=1.5,model=1,daily=RES2_4,status=variable
new load.3001160250M1 bus1=RML200017712.1.2.0,Phases=2,kv=0.24,kW=0.76622,pf=0.92,Vminpu=0.92,Vmaxpu=1.5,model=1,daily=RES1_16,status=variable
new load.3001160253M1 bus1=RML200017733.1.0,Phases=1,kv=0.12,kW=0.83082,pf=0.92,Vminpu=0.92,Vmaxpu=1.5,model=1,daily=RES3_13,status=variable
new load.3001160254M1 bus1=RML200017635.1.0,Phases=1,kv=0.12,kW=0.53612,pf=0.92,Vminpu=0.92,Vmaxpu=1.5,model=1,daily=RES1_1,status=variable
new load.3001160256M1 bus1=RML200017628.1.0,Phases=1,kv=0.12,kW=1.02882,pf=0.92,Vminpu=0.92,Vmaxpu=1.5,model=1,daily=RES2_7,status=variable
new load.3001160258M1 bus1=RML200017593.1.0,Phases=1,kv=0.12,kW=1.11654,pf=0.92,Vminpu=0.92,Vmaxpu=1.5,model=1,daily=RES2_2,status=variable
new load.3001160259M1 bus1=RML200017572.1.2.0,Phases=2,kv=0.24,kW=0.87252,pf=0.92,Vminpu=0.92,Vmaxpu=1.5,model=1,daily=RES1_1,status=variable
new load.3001160260M1 bus1=RML200017558.1.0,Phases=1,kv=0.12,kW=0.32718,pf=0.92,Vminpu=0.92,Vmaxpu=1.5,model=1,daily=RES2_28,status=variable
new load.3001160261M1 bus1=RML200017544.1.2.0,Phases=2,kv=0.24,kW=0.8641,pf=0.92,Vminpu=0.92,Vmaxpu=1.5,model=1,daily=RES1_2,status=variable
new load.3001160263M1 bus1=RML200017530.1.2.0,Phases=2,kv=0.24,kW=1.53224,pf=0.92,Vminpu=0.92,Vmaxpu=1.5,model=1,daily=RES2_14,status=variable
new load.3001160078M1 bus1=RML210554913.1.2.0,Phases=2,kv=0.22,kW=0.4026,pf=0.92,Vminpu=0.92,Vmaxpu=1.5,model=1,daily=RES1_2,status=variable
new load.3001160056M1 bus1=RML200018076.1.3.0,Phases=2,kv=0.22,kW=0.40588,pf=0.92,Vminpu=0.92,Vmaxpu=1.5,model=1,daily=RES2_27,status=variable
new load.3001160058M1 bus1=RML200018041.2.0,Phases=1,kv=0.127,kW=0.2611,pf=0.92,Vminpu=0.92,Vmaxpu=1.5,model=1,daily=RES1_11,status=variable
new load.3001160059M1 bus1=RML200018048.1.0,Phases=1,kv=0.127,kW=0.97156,pf=0.92,Vminpu=0.92,Vmaxpu=1.5,model=1,daily=RES3_11,status=variable
new load.3001160060M1 bus1=RML200018034.1.2.3.0,Phases=3,kv=0.22,kW=0.01196,pf=0.92,Vminpu=0.92,Vmaxpu=1.5,model=1,daily=RES1_19,status=variable
new load.3001160061M1 bus1=RML200018055.3.0,Phases=1,kv=0.127,kW=0.48714,pf=0.92,Vminpu=0.92,Vmaxpu=1.5,model=1,daily=RES2_13,status=variable
new load.3001160062M1 bus1=RML200018013.1.2.3.0,Phases=3,kv=0.22,kW=0.42638,pf=0.92,Vminpu=0.92,Vmaxpu=1.5,model=1,daily=RES1_17,status=variable
new load.3001160063M1 bus1=RML200018013.1.2.3.0,Phases=3,kv=0.22,kW=1.65568,pf=0.92,Vminpu=0.92,Vmaxpu=1.5,model=1,daily=RES2_20,status=variable
new load.3001160064M1 bus1=RML200018013.1.2.3.0,Phases=3,kv=0.22,kW=1.0986,pf=0.92,Vminpu=0.92,Vmaxpu=1.5,model=1,daily=RES2_1,status=variable
new load.3001160065M1 bus1=RML200018013.1.2.3.0,Phases=3,kv=0.22,kW=0.50634,pf=0.92,Vminpu=0.92,Vmaxpu=1.5,model=1,daily=RES2_10,status=variable
new load.3001160066M1 bus1=RML200018020.1.2.0,Phases=2,kv=0.22,kW=0.39946,pf=0.92,Vminpu=0.92,Vmaxpu=1.5,model=1,daily=RES1_1,status=variable
new load.3001160069M1 bus1=RML200017985.1.2.3.0,Phases=3,kv=0.22,kW=1.03782,pf=0.92,Vminpu=0.92,Vmaxpu=1.5,model=1,daily=RES2_2,status=variable
new load.3001160070M1 bus1=RML200017985.1.2.3.0,Phases=3,kv=0.22,kW=1.11068,pf=0.92,Vminpu=0.92,Vmaxpu=1.5,model=1,daily=RES1_7,status=variable
new load.3001160073M1 bus1=RML200017999.1.0,Phases=1,kv=0.127,kW=0.71482,pf=0.92,Vminpu=0.92,Vmaxpu=1.5,model=1,daily=RES1_1,status=variable
new load.3001160075M1 bus1=RML200017964.1.2.0,Phases=2,kv=0.22,kW=0.72854,pf=0.92,Vminpu=0.92,Vmaxpu=1.5,model=1,daily=RES2_23,status=variable
new load.3001160076M1 bus1=RML200017950.1.2.3.0,Phases=3,kv=0.22,kW=0.13494,pf=0.92,Vminpu=0.92,Vmaxpu=1.5,model=1,daily=RES1_18,status=variable
new load.3001160135M1 bus1=RML200018090.1.0,Phases=1,kv=0.127,kW=0.07856,pf=0.92,Vminpu=0.92,Vmaxpu=1.5,model=1,daily=RES1_2,status=variable
new load.3002426035M1 bus1=RML200171551.1.2.3.0,Phases=3,kv=0.22,kW=7.01294,pf=0.92,Vminpu=0.92,Vmaxpu=1.5,model=1,daily=COM3_8,status=variable
new load.3002426036M1 bus1=RML200171509.1.2.3.0,Phases=3,kv=0.22,kW=1.78774,pf=0.92,Vminpu=0.92,Vmaxpu=1.5,model=1,daily=RES2_4,status=variable
new load.3002426037M1 bus1=RML200171509.1.2.3.0,Phases=3,kv=0.22,kW=1.0092,pf=0.92,Vminpu=0.92,Vmaxpu=1.5,model=1,daily=RES2_4,status=variable
new load.3002426038M1 bus1=RML200171509.1.2.3.0,Phases=3,kv=0.22,kW=0.023,pf=0.92,Vminpu=0.92,Vmaxpu=1.5,model=1,daily=RES1_3,status=variable
new load.3002426027M1 bus1=RML204950178.1.2.3.0,Phases=3,kv=0.22,kW=6.08214,pf=0.92,Vminpu=0.92,Vmaxpu=1.5,model=1,daily=COM3_1,status=variable
new load.3002426187M1 bus1=RML200048134.1.2.3.0,Phases=3,kv=0.22,kW=0.94668,pf=0.92,Vminpu=0.92,Vmaxpu=1.5,model=1,daily=RES1_8,status=variable
new load.3002426188M1 bus1=RML200048134.1.2.3.0,Phases=3,kv=0.22,kW=1.21104,pf=0.92,Vminpu=0.92,Vmaxpu=1.5,model=1,daily=RES2_4,status=variable
new load.3002426189M1 bus1=RML200048134.1.2.3.0,Phases=3,kv=0.22,kW=0.86786,pf=0.92,Vminpu=0.92,Vmaxpu=1.5,model=1,daily=RES2_5,status=variable
new load.3002426190M1 bus1=RML200048148.1.0,Phases=1,kv=0.127,kW=0.60194,pf=0.92,Vminpu=0.92,Vmaxpu=1.5,model=1,daily=IND1_8,status=variable
new load.3002426191M1 bus1=RML200171488.3.0,Phases=1,kv=0.127,kW=0.26894,pf=0.92,Vminpu=0.92,Vmaxpu=1.5,model=1,daily=COM1_7,status=variable
new load.3002426192M1 bus1=RML200048141.1.2.3.0,Phases=3,kv=0.22,kW=1.59688,pf=0.92,Vminpu=0.92,Vmaxpu=1.5,model=1,daily=COM2_17,status=variable
new load.3002426195M1 bus1=RML200171481.1.2.3.0,Phases=3,kv=0.22,kW=0.56766,pf=0.92,Vminpu=0.92,Vmaxpu=1.5,model=1,daily=RES1_1,status=variable
new load.3002426196M1 bus1=RML200171481.1.2.3.0,Phases=3,kv=0.22,kW=2.50308,pf=0.92,Vminpu=0.92,Vmaxpu=1.5,model=1,daily=COM2_12,status=variable
new load.3002426198M1 bus1=RML200171481.1.2.3.0,Phases=3,kv=0.22,kW=0.65422,pf=0.92,Vminpu=0.92,Vmaxpu=1.5,model=1,daily=RES2_1,status=variable
new load.3002426199M1 bus1=RML200171481.1.2.3.0,Phases=3,kv=0.22,kW=1.41288,pf=0.92,Vminpu=0.92,Vmaxpu=1.5,model=1,daily=RES2_4,status=variable
new load.3002426200M1 bus1=RML200171481.1.2.3.0,Phases=3,kv=0.22,kW=2.3673,pf=0.92,Vminpu=0.92,Vmaxpu=1.5,model=1,daily=COM2_21,status=variable
new load.3002426201M1 bus1=RML200171495.1.2.3.0,Phases=3,kv=0.22,kW=0.87268,pf=0.92,Vminpu=0.92,Vmaxpu=1.5,model=1,daily=COM1_22,status=variable
new load.3002426202M1 bus1=RML200171502.1.2.3.0,Phases=3,kv=0.22,kW=5.07318,pf=0.92,Vminpu=0.92,Vmaxpu=1.5,model=1,daily=COM2_10,status=variable
new load.3002426203M1 bus1=RML200171537.1.2.3.0,Phases=3,kv=0.22,kW=0.30848,pf=0.92,Vminpu=0.92,Vmaxpu=1.5,model=1,daily=COM1_5,status=variable
new load.3002426204M1 bus1=RML200171530.1.2.3.0,Phases=3,kv=0.22,kW=0.07582,pf=0.92,Vminpu=0.92,Vmaxpu=1.5,model=1,daily=COM1_5,status=variable
new load.3002426205M1 bus1=RML200171544.1.2.3.0,Phases=3,kv=0.22,kW=0.71726,pf=0.92,Vminpu=0.92,Vmaxpu=1.5,model=1,daily=COM1_21,status=variable
new load.3002426206M1 bus1=RML200171516.1.2.3.0,Phases=3,kv=0.22,kW=0.58744,pf=0.92,Vminpu=0.92,Vmaxpu=1.5,model=1,daily=RES1_21,status=variable
new load.3002426207M1 bus1=RML200171516.1.2.3.0,Phases=3,kv=0.22,kW=0.35306,pf=0.92,Vminpu=0.92,Vmaxpu=1.5,model=1,daily=COM1_14,status=variable
new load.3002426216M1 bus1=RML200174638.1.2.3.0,Phases=3,kv=0.22,kW=3.43628,pf=0.92,Vminpu=0.92,Vmaxpu=1.5,model=1,daily=COM2_14,status=variable
new load.3002426229M1 bus1=RML200174687.1.2.3.0,Phases=3,kv=0.22,kW=6.04762,pf=0.92,Vminpu=0.92,Vmaxpu=1.5,model=1,daily=COM3_14,status=variable
new load.3002426213M1 bus1=RML200174708.1.2.3.0,Phases=3,kv=0.22,kW=1.06274,pf=0.92,Vminpu=0.92,Vmaxpu=1.5,model=1,daily=RES3_19,status=variable
new load.3002426472M1 bus1=RML200048155.3.0,Phases=1,kv=0.127,kW=0.49696,pf=0.92,Vminpu=0.92,Vmaxpu=1.5,model=1,daily=COM1_7,status=variable
new load.3002426474M1 bus1=RML200048162.1.2.3.0,Phases=3,kv=0.22,kW=1.88752,pf=0.92,Vminpu=0.92,Vmaxpu=1.5,model=1,daily=COM2_1,status=variable
new load.3002426610M1 bus1=RML200055883.1.2.3.0,Phases=3,kv=0.22,kW=0.1871,pf=0.92,Vminpu=0.92,Vmaxpu=1.5,model=1,daily=COM1_7,status=variable
new load.3001160610M1 bus1=RML200021590.1.2.3.0,Phases=3,kv=0.22,kW=0.34544,pf=0.92,Vminpu=0.92,Vmaxpu=1.5,model=1,daily=RES1_10,status=variable
new load.3001160613M1 bus1=RML200021604.1.2.3.0,Phases=3,kv=0.22,kW=0.48946,pf=0.92,Vminpu=0.92,Vmaxpu=1.5,model=1,daily=RES2_22,status=variable
new load.3001160510M1 bus1=RML205312617.2.0,Phases=1,kv=0.127,kW=0.74626,pf=0.92,Vminpu=0.92,Vmaxpu=1.5,model=1,daily=RES1_2,status=variable
new load.3001160624M1 bus1=RML200021660.1.0,Phases=1,kv=0.127,kW=0.18986,pf=0.92,Vminpu=0.92,Vmaxpu=1.5,model=1,daily=RES1_6,status=variable
new load.3001160625M1 bus1=RML200021660.1.0,Phases=1,kv=0.127,kW=0.01748,pf=0.92,Vminpu=0.92,Vmaxpu=1.5,model=1,daily=COM1_4,status=variable
new load.3001160626M1 bus1=RML200021646.1.2.3.0,Phases=3,kv=0.22,kW=0.2595,pf=0.92,Vminpu=0.92,Vmaxpu=1.5,model=1,daily=RES2_4,status=variable
new load.3001160627M1 bus1=RML200021646.1.2.3.0,Phases=3,kv=0.22,kW=1.37444,pf=0.92,Vminpu=0.92,Vmaxpu=1.5,model=1,daily=RES2_4,status=variable
new load.3001160630M1 bus1=RML200021688.1.2.3.0,Phases=3,kv=0.22,kW=1.83136,pf=0.92,Vminpu=0.92,Vmaxpu=1.5,model=1,daily=RES3_2,status=variable
new load.3001160639M1 bus1=RML200021716.1.2.3.0,Phases=3,kv=0.22,kW=0.32718,pf=0.92,Vminpu=0.92,Vmaxpu=1.5,model=1,daily=RES2_28,status=variable
new load.3001160640M1 bus1=RML200021709.1.2.3.0,Phases=3,kv=0.22,kW=0.32142,pf=0.92,Vminpu=0.92,Vmaxpu=1.5,model=1,daily=RES1_23,status=variable
new load.3001160641M1 bus1=RML200021702.1.2.3.0,Phases=3,kv=0.22,kW=1.15852,pf=0.92,Vminpu=0.92,Vmaxpu=1.5,model=1,daily=RES2_14,status=variable