new load.3001815010M1 bus1=RML201854858.2.0,Phases=1,kv=0.127,kW=0.68868,pf=0.92,Vminpu=0.92,Vmaxpu=1.5,model=1,daily=RES2_5,status=variable
new load.3001815013M1 bus1=RML201854844.1.2.3.0,Phases=3,kv=0.22,kW=0.89026,pf=0.92,Vminpu=0.92,Vmaxpu=1.5,model=1,daily=RES2_5,status=variable
new load.3001815015M1 bus1=RML201854844.1.2.3.0,Phases=3,kv=0.22,kW=0.30324,pf=0.92,Vminpu=0.92,Vmaxpu=1.5,model=1,daily=RES2_23,status=variable
new load.3001815016M1 bus1=RML201854844.1.2.3.0,Phases=3,kv=0.22,kW=0.40238,pf=0.92,Vminpu=0.92,Vmaxpu=1.5,model=1,daily=RES1_3,status=variable
new load.3001815017M1 bus1=RML201854844.1.2.3.0,Phases=3,kv=0.22,kW=0.87942,pf=0.92,Vminpu=0.92,Vmaxpu=1.5,model=1,daily=RES2_10,status=variable
new load.3001815018M1 bus1=RML201854844.1.2.3.0,Phases=3,kv=0.22,kW=0.80708,pf=0.92,Vminpu=0.92,Vmaxpu=1.5,model=1,daily=RES3_4,status=variable
new load.3001815019M1 bus1=RML201854844.1.2.3.0,Phases=3,kv=0.22,kW=1.61834,pf=0.92,Vminpu=0.92,Vmaxpu=1.5,model=1,daily=RES2_12,status=variable
new load.3001815020M1 bus1=RML201854844.1.2.3.0,Phases=3,kv=0.22,kW=1.31678,pf=0.92,Vminpu=0.92,Vmaxpu=1.5,model=1,daily=RES2_4,status=variable
new load.3001815021M1 bus1=RML201854844.1.2.3.0,Phases=3,kv=0.22,kW=1.15234,pf=0.92,Vminpu=0.92,Vmaxpu=1.5,model=1,daily=RES2_2,status=variable
new load.3001815022M1 bus1=RML201854851.1.2.3.0,Phases=3,kv=0.22,kW=22.93558,pf=0.92,Vminpu=0.92,Vmaxpu=1.5,model=1,daily=COM4_15,status=variable
new load.3001815023M1 bus1=RML201854830.1.2.3.0,Phases=3,kv=0.22,kW=1.63396,pf=0.92,Vminpu=0.92,Vmaxpu=1.5,model=1,daily=RES2_4,status=variable
new load.3001815024M1 bus1=RML201854837.1.2.3.0,Phases=3,kv=0.22,kW=1.1146,pf=0.92,Vminpu=0.92,Vmaxpu=1.5,model=1,daily=COM1_12,status=variable
new load.3000380431M1 bus1=RML201842482.1.0,Phases=1,kv=0.127,kW=13.69292,pf=0.92,Vminpu=0.92,Vmaxpu=1.5,model=1,daily=COM1_13,status=variable
new load.3000380434M1 bus1=RML201842468.1.2.3.0,Phases=3,kv=0.22,kW=1.24866,pf=0.92,Vminpu=0.92,Vmaxpu=1.5,model=1,daily=RES5_9,status=variable
new load.3000380435M1 bus1=RML201842475.1.2.3.0,Phases=3,kv=0.22,kW=4.3182,pf=0.92,Vminpu=0.92,Vmaxpu=1.5,model=1,daily=COM2_11,status=variable
new load.3000380436M1 bus1=RML201842496.1.2.3.0,Phases=3,kv=0.22,kW=0.99944,pf=0.92,Vminpu=0.92,Vmaxpu=1.5,model=1,daily=COM2_14,status=variable
new load.3000380437M1 bus1=RML201842503.1.2.3.0,Phases=3,kv=0.22,kW=0.77908,pf=0.92,Vminpu=0.92,Vmaxpu=1.5,model=1,daily=COM1_20,status=variable
new load.3000380438M1 bus1=RML201842531.2.3.0,Phases=2,kv=0.22,kW=8.9255,pf=0.92,Vminpu=0.92,Vmaxpu=1.5,model=1,daily=COM3_12,status=variable
new load.3000380439M1 bus1=RML201842531.2.3.0,Phases=2,kv=0.22,kW=0.17882,pf=0.92,Vminpu=0.92,Vmaxpu=1.5,model=1,daily=COM1_3,status=variable
new load.3000380440M1 bus1=RML201842524.1.2.0,Phases=2,kv=0.22,kW=0.47066,pf=0.92,Vminpu=0.92,Vmaxpu=1.5,model=1,daily=COM1_7,status=variable
new load.3000380441M1 bus1=RML201842517.1.2.0,Phases=2,kv=0.22,kW=2.54186,pf=0.92,Vminpu=0.92,Vmaxpu=1.5,model=1,daily=COM2_6,status=variable
new load.3000380442M1 bus1=RML201842517.1.2.0,Phases=2,kv=0.22,kW=0.3634,pf=0.92,Vminpu=0.92,Vmaxpu=1.5,model=1,daily=COM1_4,status=variable
new load.3000380483M1 bus1=RML201837232.1.3.0,Phases=2,kv=0.22,kW=1.51646,pf=0.92,Vminpu=0.92,Vmaxpu=1.5,model=1,daily=COM2_2,status=variable
new load.3000380321M1 bus1=RML201837512.1.2.3.0,Phases=3,kv=0.22,kW=1.88472,pf=0.92,Vminpu=0.92,Vmaxpu=1.5,model=1,daily=COM1_21,status=variable
new load.3000380322M1 bus1=RML201837512.1.2.3.0,Phases=3,kv=0.22,kW=1.4761,pf=0.92,Vminpu=0.92,Vmaxpu=1.5,model=1,daily=COM1_12,status=variable
new load.3000380323M1 bus1=RML201837505.1.2.3.0,Phases=3,kv=0.22,kW=0.0171,pf=0.92,Vminpu=0.92,Vmaxpu=1.5,model=1,daily=RES1_20,status=variable
new load.3000380324M1 bus1=RML201837505.1.2.3.0,Phases=3,kv=0.22,kW=3.04348,pf=0.92,Vminpu=0.92,Vmaxpu=1.5,model=1,daily=RES3_1,status=variable
new load.3000380325M1 bus1=RML201837505.1.2.3.0,Phases=3,kv=0.22,kW=0.75062,pf=0.92,Vminpu=0.92,Vmaxpu=1.5,model=1,daily=RES2_6,status=variable
new load.3000380326M1 bus1=RML201837505.1.2.3.0,Phases=3,kv=0.22,kW=0.82784,pf=0.92,Vminpu=0.92,Vmaxpu=1.5,model=1,daily=RES2_20,status=variable
new load.3000380327M1 bus1=RML201837505.1.2.3.0,Phases=3,kv=0.22,kW=1.05164,pf=0.92,Vminpu=0.92,Vmaxpu=1.5,model=1,daily=RES3_4,status=variable
new load.3000380328M1 bus1=RML201837449.1.2.3.0,Phases=3,kv=0.22,kW=102.89482,pf=0.92,Vminpu=0.92,Vmaxpu=1.5,model=1,daily=COM4_25,status=variable
new load.3000380329M1 bus1=RML206739226.1.2.3.0,Phases=3,kv=0.22,kW=12.40688,pf=0.92,Vminpu=0.92,Vmaxpu=1.5,model=1,daily=COM3_14,status=variable
new load.3000380330M1 bus1=RML201837470.1.0,Phases=1,kv=0.127,kW=7.30992,pf=0.92,Vminpu=0.92,Vmaxpu=1.5,model=1,daily=RES1_6,status=variable
new load.3000380331M1 bus1=RML201837484.1.2.3.0,Phases=3,kv=0.22,kW=0.2121,pf=0.92,Vminpu=0.92,Vmaxpu=1.5,model=1,daily=COM1_3,status=variable
new load.3000380332M1 bus1=RML201837484.1.2.3.0,Phases=3,kv=0.22,kW=0.3564,pf=0.92,Vminpu=0.92,Vmaxpu=1.5,model=1,daily=RES1_3,status=variable
new load.3000380333M1 bus1=RML201837484.1.2.3.0,Phases=3,kv=0.22,kW=1.501,pf=0.92,Vminpu=0.92,Vmaxpu=1.5,model=1,daily=COM1_25,status=variable
new load.3000380334M1 bus1=RML201837421.1.2.3.0,Phases=3,kv=0.22,kW=1.82776,pf=0.92,Vminpu=0.92,Vmaxpu=1.5,model=1,daily=RES1_11,status=variable
new load.3000380335M1 bus1=RML201837435.1.2.3.0,Phases=3,kv=0.22,kW=0.23428,pf=0.92,Vminpu=0.92,Vmaxpu=1.5,model=1,daily=RES1_7,status=variable
new load.3000380336M1 bus1=RML201837435.1.2.3.0,Phases=3,kv=0.22,kW=1.48204,pf=0.92,Vminpu=0.92,Vmaxpu=1.5,model=1,daily=RES1_10,status=variable
new load.3000380337M1 bus1=RML201837435.1.2.3.0,Phases=3,kv=0.22,kW=1.98928,pf=0.92,Vminpu=0.92,Vmaxpu=1.5,model=1,daily=RES3_5,status=variable
new load.3000380338M1 bus1=RML201837435.1.2.3.0,Phases=3,kv=0.22,kW=0.75536,pf=0.92,Vminpu=0.92,Vmaxpu=1.5,model=1,daily=RES3_14,status=variable
new load.3000380339M1 bus1=RML201837435.1.2.3.0,Phases=3,kv=0.22,kW=0.8907,pf=0.92,Vminpu=0.92,Vmaxpu=1.5,model=1,daily=RES2_24,status=variable
new load.3000380340M1 bus1=RML201837435.1.2.3.0,Phases=3,kv=0.22,kW=0.96114,pf=0.92,Vminpu=0.92,Vmaxpu=1.5,model=1,daily=RES2_4,status=variable
new load.3000380341M1 bus1=RML201837435.1.2.3.0,Phases=3,kv=0.22,kW=1.4361,pf=0.92,Vminpu=0.92,Vmaxpu=1.5,model=1,daily=RES1_11,status=variable
new load.3000380342M1 bus1=RML201837435.1.2.3.0,Phases=3,kv=0.22,kW=1.37596,pf=0.92,Vminpu=0.92,Vmaxpu=1.5,model=1,daily=RES2_9,status=variable
new load.3000380343M1 bus1=RML201837435.1.2.3.0,Phases=3,kv=0.22,kW=1.43808,pf=0.92,Vminpu=0.92,Vmaxpu=1.5,model=1,daily=RES2_19,status=variable
new load.3000380344M1 bus1=RML201837400.1.2.3.0,Phases=3,kv=0.22,kW=0.68668,pf=0.92,Vminpu=0.92,Vmaxpu=1.5,model=1,daily=RES2_13,status=variable
new load.3000380345M1 bus1=RML201837414.1.2.3.0,Phases=3,kv=0.22,kW=0.11834,pf=0.92,Vminpu=0.92,Vmaxpu=1.5,model=1,daily=RES1_8,status=variable
new load.3000380346M1 bus1=RML201837407.1.2.3.0,Phases=3,kv=0.22,kW=0.08914,pf=0.92,Vminpu=0.92,Vmaxpu=1.5,model=1,daily=RES1_10,status=variable
new load.3000380347M1 bus1=RML201837407.1.2.3.0,Phases=3,kv=0.22,kW=0.23174,pf=0.92,Vminpu=0.92,Vmaxpu=1.5,model=1,daily=COM1_20,status=variable
new load.3000380348M1 bus1=RML201837407.1.2.3.0,Phases=3,kv=0.22,kW=0.36882,pf=0.92,Vminpu=0.92,Vmaxpu=1.5,model=1,daily=RES1_18,status=variable
new load.3000380349M1 bus1=RML201837407.1.2.3.0,Phases=3,kv=0.22,kW=0.16692,pf=0.92,Vminpu=0.92,Vmaxpu=1.5,model=1,daily=RES1_2,status=variable
new load.3000380350M1 bus1=RML201837407.1.2.3.0,Phases=3,kv=0.22,kW=0.03734,pf=0.92,Vminpu=0.92,Vmaxpu=1.5,model=1,daily=IND1_15,status=variable
new load.3000380351M1 bus1=RML201837407.1.2.3.0,Phases=3,kv=0.22,kW=0.25668,pf=0.92,Vminpu=0.92,Vmaxpu=1.5,model=1,daily=COM1_22,status=variable
new load.3000380352M1 bus1=RML201837407.1.2.3.0,Phases=3,kv=0.22,kW=0.53996,pf=0.92,Vminpu=0.92,Vmaxpu=1.5,model=1,daily=RES2_13,status=variable
new load.3000380353M1 bus1=RML201837407.1.2.3.0,Phases=3,kv=0.22,kW=0.06104,pf=0.92,Vminpu=0.92,Vmaxpu=1.5,model=1,daily=COM1_21,status=variable
new load.3000380356M1 bus1=RML201837407.1.2.3.0,Phases=3,kv=0.22,kW=0.02466,pf=0.92,Vminpu=0.92,Vmaxpu=1.5,model=1,daily=COM1_20,status=variable
new load.3000380357M1 bus1=RML201837407.1.2.3.0,Phases=3,kv=0.22,kW=0.16208,pf=0.92,Vminpu=0.92,Vmaxpu=1.5,model=1,daily=COM1_5,status=variable
new load.3000380358M1 bus1=RML201837407.1.2.3.0,Phases=3,kv=0.22,kW=0.37754,pf=0.92,Vminpu=0.92,Vmaxpu=1.5,model=1,daily=COM1_18,status=variable
new load.3000380359M1 bus1=RML201837442.1.2.3.0,Phases=3,kv=0.22,kW=0.04102,pf=0.92,Vminpu=0.92,Vmaxpu=1.5,model=1,daily=COM1_19,status=variable
new load.3000380361M1 bus1=RML201837442.1.2.3.0,Phases=3,kv=0.22,kW=1.25546,pf=0.92,Vminpu=0.92,Vmaxpu=1.5,model=1,daily=RES2_18,status=variable
new load.3000380362M1 bus1=RML201837442.1.2.3.0,Phases=3,kv=0.22,kW=1.03804,pf=0.92,Vminpu=0.92,Vmaxpu=1.5,model=1,daily=RES2_4,status=variable
new load.3000380364M1 bus1=RML201837442.1.2.3.0,Phases=3,kv=0.22,kW=0.95908,pf=0.92,Vminpu=0.92,Vmaxpu=1.5,model=1,daily=RES2_2,status=variable
new load.3000380365M1 bus1=RML201837442.1.2.3.0,Phases=3,kv=0.22,kW=2.68572,pf=0.92,Vminpu=0.92,Vmaxpu=1.5,model=1,daily=RES3_7,status=variable
new load.3000380366M1 bus1=RML201837442.1.2.3.0,Phases=3,kv=0.22,kW=0.385,pf=0.92,Vminpu=0.92,Vmaxpu=1.5,model=1,daily=COM1_1,status=variable
new load.3000380367M1 bus1=RML201837442.1.2.3.0,Phases=3,kv=0.22,kW=1.77886,pf=0.92,Vminpu=0.92,Vmaxpu=1.5,model=1,daily=RES3_7,status=variable
new load.3000380368M1 bus1=RML201837442.1.2.3.0,Phases=3,kv=0.22,kW=1.6462,pf=0.92,Vminpu=0.92,Vmaxpu=1.5,model=1,daily=RES2_2,status=variable
new load.3000380369M1 bus1=RML201837386.2.3.0,Phases=2,kv=0.22,kW=0.57398,pf=0.92,Vminpu=0.92,Vmaxpu=1.5,model=1,daily=RES2_1,status=variable
new load.3000380370M1 bus1=RML201837386.2.3.0,Phases=2,kv=0.22,kW=0.40442,pf=0.92,Vminpu=0.92,Vmaxpu=1.5,model=1,daily=COM1_21,status=variable
new load.3000380371M1 bus1=RML201837386.2.3.0,Phases=2,kv=0.22,kW=0.48816,pf=0.92,Vminpu=0.92,Vmaxpu=1.5,model=1,daily=COM1_20,status=variable
new load.3000380374M1 bus1=RML201837372.2.3.0,Phases=2,kv=0.22,kW=1.4601,pf=0.92,Vminpu=0.92,Vmaxpu=1.5,model=1,daily=RES2_2,status=variable
new load.3000380375M1 bus1=RML201837365.2.3.0,Phases=2,kv=0.22,kW=1.0117,pf=0.92,Vminpu=0.92,Vmaxpu=1.5,model=1,daily=COM1_5,status=variable
new load.3000380376M1 bus1=RML201837274.1.2.3.0,Phases=3,kv=0.22,kW=0.11658,pf=0.92,Vminpu=0.92,Vmaxpu=1.5,model=1,daily=RES1_19,status=variable
new load.3000380377M1 bus1=RML201837274.1.2.3.0,Phases=3,kv=0.22,kW=0.04658,pf=0.92,Vminpu=0.92,Vmaxpu=1.5,model=1,daily=COM1_25,status=variable
new load.3000380378M1 bus1=RML201837274.1.2.3.0,Phases=3,kv=0.22,kW=0.7163,pf=0.92,Vminpu=0.92,Vmaxpu=1.5,model=1,daily=COM1_5,status=variable
new load.3000380380M1 bus1=RML201837274.1.2.3.0,Phases=3,kv=0.22,kW=0.3449,pf=0.92,Vminpu=0.92,Vmaxpu=1.5,model=1,daily=RES1_3,status=variable
new load.3000380381M1 bus1=RML201837274.1.2.3.0,Phases=3,kv=0.22,kW=0.66948,pf=0.92,Vminpu=0.92,Vmaxpu=1.5,model=1,daily=RES2_23,status=variable
new load.3000380382M1 bus1=RML201837274.1.2.3.0,Phases=3,kv=0.22,kW=1.94422,pf=0.92,Vminpu=0.92,Vmaxpu=1.5,model=1,daily=RES1_2,status=variable
new load.3000380385M1 bus1=RML201837316.2.0,Phases=1,kv=0.127,kW=0.3739,pf=0.92,Vminpu=0.92,Vmaxpu=1.5,model=1,daily=COM1_21,status=variable
new load.3000380386M1 bus1=RML201837302.1.2.0,Phases=2,kv=0.22,kW=0.23644,pf=0.92,Vminpu=0.92,Vmaxpu=1.5,model=1,daily=COM1_25,status=variable
new load.3000380387M1 bus1=RML201837302.1.2.0,Phases=2,kv=0.22,kW=0.4329,pf=0.92,Vminpu=0.92,Vmaxpu=1.5,model=1,daily=COM1_15,status=variable
new load.3000380388M1 bus1=RML201837302.1.2.0,Phases=2,kv=0.22,kW=0.26706,pf=0.92,Vminpu=0.92,Vmaxpu=1.5,model=1,daily=COM1_21,status=variable
new load.3000380389M1 bus1=RML201837288.2.0,Phases=1,kv=0.127,kW=0.26134,pf=0.92,Vminpu=0.92,Vmaxpu=1.5,model=1,daily=COM1_20,status=variable
new load.3000380390M1 bus1=RML201837295.3.0,Phases=1,kv=0.127,kW=2.26972,pf=0.92,Vminpu=0.92,Vmaxpu=1.5,model=1,daily=COM2_5,status=variable
new load.3000380394M1 bus1=RML201837309.1.2.0,Phases=2,kv=0.22,kW=0.0447,pf=0.92,Vminpu=0.92,Vmaxpu=1.5,model=1,daily=COM1_4,status=variable
new load.3000380395M1 bus1=RML201837379.1.2.0,Phases=2,kv=0.22,kW=0.34448,pf=0.92,Vminpu=0.92,Vmaxpu=1.5,model=1,daily=COM1_10,status=variable
new load.3000380397M1 bus1=RML201837393.1.3.0,Phases=2,kv=0.22,kW=0.19702,pf=0.92,Vminpu=0.92,Vmaxpu=1.5,model=1,daily=COM1_25,status=variable
new load.3000380399M1 bus1=RML201837351.1.3.0,Phases=2,kv=0.22,kW=1.6273,pf=0.92,Vminpu=0.92,Vmaxpu=1.5,model=1,daily=COM2_2,status=variable
new load.3000380402M1 bus1=RML201837344.1.2.0,Phases=2,kv=0.22,kW=1.2901,pf=0.92,Vminpu=0.92,Vmaxpu=1.5,model=1,daily=RES3_4,status=variable
new load.3000380403M1 bus1=RML201837428.1.2.3.0,Phases=3,kv=0.22,kW=8.37696,pf=0.92,Vminpu=0.92,Vmaxpu=1.5,model=1,daily=IND3_15,status=variable
new load.3000380405M1 bus1=RML201837463.1.2.3.0,Phases=3,kv=0.22,kW=0.31696,pf=0.92,Vminpu=0.92,Vmaxpu=1.5,model=1,daily=COM1_6,status=variable
new load.3000380406M1 bus1=RML201837463.1.2.3.0,Phases=3,kv=0.22,kW=1.02882,pf=0.92,Vminpu=0.92,Vmaxpu=1.5,model=1,daily=RES2_7,status=variable
new load.3000380408M1 bus1=RML201837477.1.2.3.0,Phases=3,kv=0.22,kW=2.26624,pf=0.92,Vminpu=0.92,Vmaxpu=1.5,model=1,daily=COM1_21,status=variable
new load.3000380409M1 bus1=RML201837519.1.2.3.0,Phases=3,kv=0.22,kW=0.8147,pf=0.92,Vminpu=0.92,Vmaxpu=1.5,model=1,daily=RES2_1,status=variable
new load.3000380410M1 bus1=RML201837491.1.2.3.0,Phases=3,kv=0.22,kW=1.1434,pf=0.92,Vminpu=0.92,Vmaxpu=1.5,model=1,daily=COM1_26,status=variable
new load.3000380411M1 bus1=RML201837498.1.2.3.0,Phases=3,kv=0.22,kW=0.2912,pf=0.92,Vminpu=0.92,Vmaxpu=1.5,model=1,daily=COM1_12,status=variable
new load.3001638183M1 bus1=RML201838268.1.2.0,Phases=2,kv=0.22,kW=0.49728,pf=0.92,Vminpu=0.92,Vmaxpu=1.5,model=1,daily=RES1_25,status=variable
new load.3001638184M1 bus1=RML201838261.3.0,Phases=1,kv=0.127,kW=0.79418,pf=0.92,Vminpu=0.92,Vmaxpu=1.5,model=1,daily=RES2_26,status=variable
new load.3001638187M1 bus1=RML201838198.1.0,Phases=1,kv=0.127,kW=0.83216,pf=0.92,Vminpu=0.92,Vmaxpu=1.5,model=1,daily=RES3_11,status=variable
new load.3001638188M1 bus1=RML201838275.3.0,Phases=1,kv=0.127,kW=0.08048,pf=0.92,Vminpu=0.92,Vmaxpu=1.5,model=1,daily=RES1_3,status=variable
new load.3001638189M1 bus1=RML201838247.1.2.0,Phases=2,kv=0.22,kW=0.6771,pf=0.92,Vminpu=0.92,Vmaxpu=1.5,model=1,daily=RES2_18,status=variable
new load.3001637987M1 bus1=RML201838954.1.2.3.0,Phases=3,kv=0.22,kW=0.62898,pf=0.92,Vminpu=0.92,Vmaxpu=1.5,model=1,daily=RES2_24,status=variable
new load.3001637989M1 bus1=RML201838940.1.2.3.0,Phases=3,kv=0.22,kW=0.55534,pf=0.92,Vminpu=0.92,Vmaxpu=1.5,model=1,daily=RES1_7,status=variable
new load.3001637996M1 bus1=RML201838926.1.2.3.0,Phases=3,kv=0.22,kW=1.27714,pf=0.92,Vminpu=0.92,Vmaxpu=1.5,model=1,daily=COM1_23,status=variable
new load.3001637998M1 bus1=RML201838912.1.2.3.0,Phases=3,kv=0.22,kW=0.65054,pf=0.92,Vminpu=0.92,Vmaxpu=1.5,model=1,daily=RES2_6,status=variable
new load.3001638001M1 bus1=RML201838898.1.2.3.0,Phases=3,kv=0.22,kW=0.0741,pf=0.92,Vminpu=0.92,Vmaxpu=1.5,model=1,daily=RES1_20,status=variable
new load.3001638002M1 bus1=RML201838898.1.2.3.0,Phases=3,kv=0.22,kW=0.2062,pf=0.92,Vminpu=0.92,Vmaxpu=1.5,model=1,daily=RES1_2,status=variable
new load.3001638003M1 bus1=RML201838863.1.3.0,Phases=2,kv=0.22,kW=0.1613,pf=0.92,Vminpu=0.92,Vmaxpu=1.5,model=1,daily=COM1_4,status=variable
new load.3001638004M1 bus1=RML201838870.1.3.0,Phases=2,kv=0.22,kW=0.25776,pf=0.92,Vminpu=0.92,Vmaxpu=1.5,model=1,daily=COM1_17,status=variable
new load.3001638005M1 bus1=RML201838870.1.3.0,Phases=2,kv=0.22,kW=0.40588,pf=0.92,Vminpu=0.92,Vmaxpu=1.5,model=1,daily=RES2_27,status=variable
new load.3001638006M1 bus1=RML201838877.1.3.0,Phases=2,kv=0.22,kW=3.44376,pf=0.92,Vminpu=0.92,Vmaxpu=1.5,model=1,daily=COM2_14,status=variable
new load.3001638007M1 bus1=RML201838877.1.3.0,Phases=2,kv=0.22,kW=0.89492,pf=0.92,Vminpu=0.92,Vmaxpu=1.5,model=1,daily=RES2_1,status=variable
new load.3001638008M1 bus1=RML201838884.1.2.3.0,Phases=3,kv=0.22,kW=2.82874,pf=0.92,Vminpu=0.92,Vmaxpu=1.5,model=1,daily=RES1_5,status=variable
new load.3001638009M1 bus1=RML201838884.1.2.3.0,Phases=3,kv=0.22,kW=1.09348,pf=0.92,Vminpu=0.92,Vmaxpu=1.5,model=1,daily=COM2_2,status=variable
new load.3001638039M1 bus1=RML201840270.2.3.0,Phases=2,kv=0.22,kW=0.00982,pf=0.92,Vminpu=0.92,Vmaxpu=1.5,model=1,daily=RES1_2,status=variable
new load.3001638040M1 bus1=RML201840270.2.3.0,Phases=2,kv=0.22,kW=2.498,pf=0.92,Vminpu=0.92,Vmaxpu=1.5,model=1,daily=RES2_3,status=variable
new load.3001638041M1 bus1=RML201840263.1.2.0,Phases=2,kv=0.22,kW=0.81104,pf=0.92,Vminpu=0.92,Vmaxpu=1.5,model=1,daily=RES2_7,status=variable
new load.3001638042M1 bus1=RML201840263.1.2.0,Phases=2,kv=0.22,kW=0.05134,pf=0.92,Vminpu=0.92,Vmaxpu=1.5,model=1,daily=COM1_22,status=variable
new load.3001638045M1 bus1=RML201840172.1.2.3.0,Phases=3,kv=0.22,kW=0.50014,pf=0.92,Vminpu=0.92,Vmaxpu=1.5,model=1,daily=RES2_23,status=variable
new load.3001638047M1 bus1=RML201840172.1.2.3.0,Phases=3,kv=0.22,kW=0.54452,pf=0.92,Vminpu=0.92,Vmaxpu=1.5,model=1,daily=RES1_17,status=variable
new load.3001638048M1 bus1=RML201840172.1.2.3.0,Phases=3,kv=0.22,kW=0.53298,pf=0.92,Vminpu=0.92,Vmaxpu=1.5,model=1,daily=RES2_10,status=variable
new load.3001638050M1 bus1=RML201840179.1.2.3.0,Phases=3,kv=0.22,kW=0.2729,pf=0.92,Vminpu=0.92,Vmaxpu=1.5,model=1,daily=RES1_16,status=variable
new load.3001638051M1 bus1=RML201840221.1.2.0,Phases=2,kv=0.22,kW=1.98788,pf=0.92,Vminpu=0.92,Vmaxpu=1.5,model=1,daily=RES3_2,status=variable
new load.3001638052M1 bus1=RML201840200.1.2.3.0,Phases=3,kv=0.22,kW=1.08792,pf=0.92,Vminpu=0.92,Vmaxpu=1.5,model=1,daily=RES2_2,status=variable
new load.3001638053M1 bus1=RML201840200.1.2.3.0,Phases=3,kv=0.22,kW=0.6693,pf=0.92,Vminpu=0.92,Vmaxpu=1.5,model=1,daily=RES2_6,status=variable
new load.3001638054M1 bus1=RML201840228.1.2.3.0,Phases=3,kv=0.22,kW=0.8328,pf=0.92,Vminpu=0.92,Vmaxpu=1.5,model=1,daily=RES2_10,status=variable
new load.3001638055M1 bus1=RML201840340.1.2.0,Phases=2,kv=0.22,kW=0.84456,pf=0.92,Vminpu=0.92,Vmaxpu=1.5,model=1,daily=RES2_2,status=variable
new load.3001638056M1 bus1=RML201840340.1.2.0,Phases=2,kv=0.22,kW=0.91604,pf=0.92,Vminpu=0.92,Vmaxpu=1.5,model=1,daily=RES1_25,status=variable
new load.3001638057M1 bus1=RML201840326.2.3.0,Phases=2,kv=0.22,kW=1.1447,pf=0.92,Vminpu=0.92,Vmaxpu=1.5,model=1,daily=RES2_6,status=variable
new load.3001638059M1 bus1=RML201840319.1.2.3.0,Phases=3,kv=0.22,kW=0.59898,pf=0.92,Vminpu=0.92,Vmaxpu=1.5,model=1,daily=RES1_2,status=variable
new load.3001638060M1 bus1=RML201840298.1.2.3.0,Phases=3,kv=0.22,kW=0.0841,pf=0.92,Vminpu=0.92,Vmaxpu=1.5,model=1,daily=RES1_1,status=variable
new load.3001638061M1 bus1=RML201840298.1.2.3.0,Phases=3,kv=0.22,kW=1.30644,pf=0.92,Vminpu=0.92,Vmaxpu=1.5,model=1,daily=RES3_14,status=variable
new load.3001638062M1 bus1=RML201840298.1.2.3.0,Phases=3,kv=0.22,kW=1.07932,pf=0.92,Vminpu=0.92,Vmaxpu=1.5,model=1,daily=RES1_14,status=variable
new load.3001638063M1 bus1=RML201840298.1.2.3.0,Phases=3,kv=0.22,kW=2.46174,pf=0.92,Vminpu=0.92,Vmaxpu=1.5,model=1,daily=RES2_11,status=variable
new load.3001638064M1 bus1=RML201840284.1.3.0,Phases=2,kv=0.22,kW=2.57578,pf=0.92,Vminpu=0.92,Vmaxpu=1.5,model=1,daily=RES2_7,status=variable
new load.3001638331M1 bus1=RML201840291.2.3.0,Phases=2,kv=0.22,kW=1.15912,pf=0.92,Vminpu=0.92,Vmaxpu=1.5,model=1,daily=RES2_21,status=variable
new load.3001638332M1 bus1=RML201840291.2.3.0,Phases=2,kv=0.22,kW=0.70286,pf=0.92,Vminpu=0.92,Vmaxpu=1.5,model=1,daily=RES2_17,status=variable
new load.3001638333M1 bus1=RML201840361.1.2.0,Phases=2,kv=0.22,kW=1.23518,pf=0.92,Vminpu=0.92,Vmaxpu=1.5,model=1,daily=RES3_14,status=variable
new load.3001638334M1 bus1=RML201840333.2.3.0,Phases=2,kv=0.22,kW=0.26792,pf=0.92,Vminpu=0.92,Vmaxpu=1.5,model=1,daily=COM1_10,status=variable
new load.3001638335M1 bus1=RML201840333.2.3.0,Phases=2,kv=0.22,kW=1.65696,pf=0.92,Vminpu=0.92,Vmaxpu=1.5,model=1,daily=RES3_4,status=variable
new load.3001638336M1 bus1=RML201840333.2.3.0,Phases=2,kv=0.22,kW=1.86528,pf=0.92,Vminpu=0.92,Vmaxpu=1.5,model=1,daily=RES2_11,status=variable
new load.3001638337M1 bus1=RML201840333.2.3.0,Phases=2,kv=0.22,kW=0.99866,pf=0.92,Vminpu=0.92,Vmaxpu=1.5,model=1,daily=RES1_1,status=variable
new load.3001638338M1 bus1=RML201840354.2.3.0,Phases=2,kv=0.22,kW=1.10098,pf=0.92,Vminpu=0.92,Vmaxpu=1.5,model=1,daily=COM2_17,status=variable
new load.3001638339M1 bus1=RML201840347.1.2.3.0,Phases=3,kv=0.22,kW=0.07856,pf=0.92,Vminpu=0.92,Vmaxpu=1.5,model=1,daily=RES1_2,status=variable
new load.3001638340M1 bus1=RML201840207.1.2.0,Phases=2,kv=0.22,kW=1.2912,pf=0.92,Vminpu=0.92,Vmaxpu=1.5,model=1,daily=RES2_13,status=variable
new load.3001638341M1 bus1=RML201840214.1.2.3.0,Phases=3,kv=0.22,kW=0.21056,pf=0.92,Vminpu=0.92,Vmaxpu=1.5,model=1,daily=RES1_15,status=variable
new load.3001638342M1 bus1=RML201840214.1.2.3.0,Phases=3,kv=0.22,kW=1.06332,pf=0.92,Vminpu=0.92,Vmaxpu=1.5,model=1,daily=RES5_20,status=variable
new load.3001638343M1 bus1=RML201840214.1.2.3.0,Phases=3,kv=0.22,kW=1.53102,pf=0.92,Vminpu=0.92,Vmaxpu=1.5,model=1,daily=RES3_3,status=variable
new load.3001638344M1 bus1=RML201840214.1.2.3.0,Phases=3,kv=0.22,kW=0.86636,pf=0.92,Vminpu=0.92,Vmaxpu=1.5,model=1,daily=RES1_20,status=variable
new load.3001638345M1 bus1=RML201840214.1.2.3.0,Phases=3,kv=0.22,kW=0.7562,pf=0.92,Vminpu=0.92,Vmaxpu=1.5,model=1,daily=RES3_20,status=variable
new load.3001638346M1 bus1=RML201840214.1.2.3.0,Phases=3,kv=0.22,kW=1.36488,pf=0.92,Vminpu=0.92,Vmaxpu=1.5,model=1,daily=RES1_2,status=variable
new load.3001638348M1 bus1=RML201840158.1.2.3.0,Phases=3,kv=0.22,kW=1.36482,pf=0.92,Vminpu=0.92,Vmaxpu=1.5,model=1,daily=RES2_4,status=variable
new load.3001638349M1 bus1=RML201840158.1.2.3.0,Phases=3,kv=0.22,kW=1.37426,pf=0.92,Vminpu=0.92,Vmaxpu=1.5,model=1,daily=RES2_7,status=variable
new load.3001638350M1 bus1=RML201840158.1.2.3.0,Phases=3,kv=0.22,kW=0.0057,pf=0.92,Vminpu=0.92,Vmaxpu=1.5,model=1,daily=RES1_20,status=variable
new load.3001638351M1 bus1=RML201840193.1.2.0,Phases=2,kv=0.22,kW=2.88748,pf=0.92,Vminpu=0.92,Vmaxpu=1.5,model=1,daily=RES4_3,status=variable
new load.3001638352M1 bus1=RML201840249.1.2.3.0,Phases=3,kv=0.22,kW=0.31736,pf=0.92,Vminpu=0.92,Vmaxpu=1.5,model=1,daily=RES2_16,status=variable
new load.3001638353M1 bus1=RML201840249.1.2.3.0,Phases=3,kv=0.22,kW=0.86322,pf=0.92,Vminpu=0.92,Vmaxpu=1.5,model=1,daily=RES2_6,status=variable
new load.3001638355M1 bus1=RML201840249.1.2.3.0,Phases=3,kv=0.22,kW=0.12596,pf=0.92,Vminpu=0.92,Vmaxpu=1.5,model=1,daily=RES1_16,status=variable
new load.3001638356M1 bus1=RML201840235.1.2.3.0,Phases=3,kv=0.22,kW=0.74468,pf=0.92,Vminpu=0.92,Vmaxpu=1.5,model=1,daily=RES2_5,status=variable
new load.3001638357M1 bus1=RML201840235.1.2.3.0,Phases=3,kv=0.22,kW=0.7659,pf=0.92,Vminpu=0.92,Vmaxpu=1.5,model=1,daily=RES1_2,status=variable
new load.3001638358M1 bus1=RML201840235.1.2.3.0,Phases=3,kv=0.22,kW=1.35058,pf=0.92,Vminpu=0.92,Vmaxpu=1.5,model=1,daily=COM1_21,status=variable
new load.3001638359M1 bus1=RML201840235.1.2.3.0,Phases=3,kv=0.22,kW=0.96604,pf=0.92,Vminpu=0.92,Vmaxpu=1.5,model=1,daily=RES2_10,status=variable
new load.3001638361M1 bus1=RML201840242.1.2.0,Phases=2,kv=0.22,kW=0.01808,pf=0.92,Vminpu=0.92,Vmaxpu=1.5,model=1,daily=RES1_21,status=variable
new load.3001638362M1 bus1=RML201840242.1.2.0,Phases=2,kv=0.22,kW=1.2616,pf=0.92,Vminpu=0.92,Vmaxpu=1.5,model=1,daily=RES2_7,status=variable
new load.3001638363M1 bus1=RML201840242.1.2.0,Phases=2,kv=0.22,kW=1.20244,pf=0.92,Vminpu=0.92,Vmaxpu=1.5,model=1,daily=RES2_2,status=variable
new load.3001638364M1 bus1=RML201840256.2.0,Phases=1,kv=0.127,kW=0.64382,pf=0.92,Vminpu=0.92,Vmaxpu=1.5,model=1,daily=RES1_3,status=variable
new load.3001638365M1 bus1=RML201840256.2.0,Phases=1,kv=0.127,kW=0.30522,pf=0.92,Vminpu=0.92,Vmaxpu=1.5,model=1,daily=COM1_21,status=variable
new load.3001638327M1 bus1=RML201840312.2.3.0,Phases=2,kv=0.22,kW=3.36742,pf=0.92,Vminpu=0.92,Vmaxpu=1.5,model=1,daily=RES4_7,status=variable
new load.3001638318M1 bus1=RML201843574.1.2.0,Phases=2,kv=0.22,kW=1.18652,pf=0.92,Vminpu=0.92,Vmaxpu=1.5,model=1,daily=RES2_7,status=variable
new load.3001638320M1 bus1=RML201843553.1.2.0,Phases=2,kv=0.22,kW=0.59168,pf=0.92,Vminpu=0.92,Vmaxpu=1.5,model=1,daily=RES1_8,status=variable
new load.3001638321M1 bus1=RML201843553.1.2.0,Phases=2,kv=0.22,kW=0.53488,pf=0.92,Vminpu=0.92,Vmaxpu=1.5,model=1,daily=RES1_10,status=variable
new load.3001638322M1 bus1=RML201841012.1.2.0,Phases=2,kv=0.22,kW=1.08276,pf=0.92,Vminpu=0.92,Vmaxpu=1.5,model=1,daily=RES1_1,status=variable
new load.3001638324M1 bus1=RML201840998.1.2.3.0,Phases=3,kv=0.22,kW=0.14464,pf=0.92,Vminpu=0.92,Vmaxpu=1.5,model=1,daily=RES1_8,status=variable
new load.3001638325M1 bus1=RML201840977.1.2.0,Phases=2,kv=0.22,kW=0.472,pf=0.92,Vminpu=0.92,Vmaxpu=1.5,model=1,daily=RES1_11,status=variable
new load.3001638326M1 bus1=RML201840977.1.2.0,Phases=2,kv=0.22,kW=1.05932,pf=0.92,Vminpu=0.92,Vmaxpu=1.5,model=1,daily=RES2_10,status=variable
new load.3001638065M1 bus1=RML201840914.1.3.0,Phases=2,kv=0.22,kW=1.23026,pf=0.92,Vminpu=0.92,Vmaxpu=1.5,model=1,daily=RES2_4,status=variable
new load.3001638066M1 bus1=RML201840935.1.2.0,Phases=2,kv=0.22,kW=0.81838,pf=0.92,Vminpu=0.92,Vmaxpu=1.5,model=1,daily=RES2_17,status=variable
new load.3001638067M1 bus1=RML201840795.1.0,Phases=1,kv=0.127,kW=1.20032,pf=0.92,Vminpu=0.92,Vmaxpu=1.5,model=1,daily=RES2_9,status=variable
new load.3001638068M1 bus1=RML201840781.2.3.0,Phases=2,kv=0.22,kW=1.5443,pf=0.92,Vminpu=0.92,Vmaxpu=1.5,model=1,daily=RES2_9,status=variable
new load.3001638069M1 bus1=RML201840781.2.3.0,Phases=2,kv=0.22,kW=1.18882,pf=0.92,Vminpu=0.92,Vmaxpu=1.5,model=1,daily=RES3_6,status=variable
new load.3001638070M1 bus1=RML201840928.1.2.3.0,Phases=3,kv=0.22,kW=0.70976,pf=0.92,Vminpu=0.92,Vmaxpu=1.5,model=1,daily=RES2_1,status=variable
new load.3001638071M1 bus1=RML201840921.1.2.0,Phases=2,kv=0.22,kW=1.12594,pf=0.92,Vminpu=0.92,Vmaxpu=1.5,model=1,daily=RES2_6,status=variable
new load.3001638151M1 bus1=RML201840956.1.2.0,Phases=2,kv=0.22,kW=0.76888,pf=0.92,Vminpu=0.92,Vmaxpu=1.5,model=1,daily=RES1_10,status=variable
new load.3001638152M1 bus1=RML201840956.1.2.0,Phases=2,kv=0.22,kW=0.62626,pf=0.92,Vminpu=0.92,Vmaxpu=1.5,model=1,daily=RES2_10,status=variable
new load.3001638154M1 bus1=RML201840991.2.3.0,Phases=2,kv=0.22,kW=1.01068,pf=0.92,Vminpu=0.92,Vmaxpu=1.5,model=1,daily=RES1_15,status=variable
new load.3001638156M1 bus1=RML201840984.1.2.3.0,Phases=3,kv=0.22,kW=1.52426,pf=0.92,Vminpu=0.92,Vmaxpu=1.5,model=1,daily=RES1_1,status=variable
new load.3001638157M1 bus1=RML201843567.2.3.0,Phases=2,kv=0.22,kW=2.52996,pf=0.92,Vminpu=0.92,Vmaxpu=1.5,model=1,daily=RES4_11,status=variable
new load.3001638106M1 bus1=RML201841362.1.2.0,Phases=2,kv=0.22,kW=1.18904,pf=0.92,Vminpu=0.92,Vmaxpu=1.5,model=1,daily=RES3_13,status=variable
new load.3001638107M1 bus1=RML201841355.2.0,Phases=1,kv=0.127,kW=1.73546,pf=0.92,Vminpu=0.92,Vmaxpu=1.5,model=1,daily=RES2_12,status=variable
new load.3001638108M1 bus1=RML210699564.1.3.0,Phases=2,kv=0.22,kW=0.69432,pf=0.92,Vminpu=0.92,Vmaxpu=1.5,model=1,daily=RES2_6,status=variable
new load.3001638109M1 bus1=RML201841481.1.2.0,Phases=2,kv=0.22,kW=0.16264,pf=0.92,Vminpu=0.92,Vmaxpu=1.5,model=1,daily=RES2_6,status=variable
new load.3001638110M1 bus1=RML201841474.1.0,Phases=1,kv=0.127,kW=0.66226,pf=0.92,Vminpu=0.92,Vmaxpu=1.5,model=1,daily=RES1_1,status=variable
new load.3001638111M1 bus1=RML201841467.1.2.0,Phases=2,kv=0.22,kW=0.72212,pf=0.92,Vminpu=0.92,Vmaxpu=1.5,model=1,daily=RES2_1,status=variable
new load.3001638112M1 bus1=RML201841320.1.2.0,Phases=2,kv=0.22,kW=0.8328,pf=0.92,Vminpu=0.92,Vmaxpu=1.5,model=1,daily=RES2_10,status=variable
new load.3001638113M1 bus1=RML201841299.1.2.0,Phases=2,kv=0.22,kW=0.12646,pf=0.92,Vminpu=0.92,Vmaxpu=1.5,model=1,daily=RES1_3,status=variable
new load.3001638114M1 bus1=RML201841306.2.0,Phases=1,kv=0.127,kW=0.42204,pf=0.92,Vminpu=0.92,Vmaxpu=1.5,model=1,daily=RES3_17,status=variable
new load.3001638116M1 bus1=RML201841404.1.0,Phases=1,kv=0.127,kW=1.06382,pf=0.92,Vminpu=0.92,Vmaxpu=1.5,model=1,daily=RES2_5,status=variable
new load.3001638117M1 bus1=RML201841432.1.2.3.0,Phases=3,kv=0.22,kW=0.55234,pf=0.92,Vminpu=0.92,Vmaxpu=1.5,model=1,daily=RES1_11,status=variable
new load.3001638118M1 bus1=RML201841453.3.0,Phases=1,kv=0.127,kW=0.7889,pf=0.92,Vminpu=0.92,Vmaxpu=1.5,model=1,daily=RES1_8,status=variable
new load.3001638120M1 bus1=RML201841446.2.0,Phases=1,kv=0.127,kW=0.70314,pf=0.92,Vminpu=0.92,Vmaxpu=1.5,model=1,daily=RES3_4,status=variable
new load.3001638121M1 bus1=RML201841439.3.0,Phases=1,kv=0.127,kW=1.30934,pf=0.92,Vminpu=0.92,Vmaxpu=1.5,model=1,daily=RES2_20,status=variable
new load.3001638122M1 bus1=RML201841418.1.0,Phases=1,kv=0.127,kW=1.6256,pf=0.92,Vminpu=0.92,Vmaxpu=1.5,model=1,daily=RES2_10,status=variable
new load.3001638123M1 bus1=RML201841418.1.0,Phases=1,kv=0.127,kW=0.00962,pf=0.92,Vminpu=0.92,Vmaxpu=1.5,model=1,daily=RES2_4,status=variable
new load.3001638124M1 bus1=RML201841411.2.0,Phases=1,kv=0.127,kW=0.862,pf=0.92,Vminpu=0.92,Vmaxpu=1.5,model=1,daily=RES1_1,status=variable
new load.3001638126M1 bus1=RML201841271.2.3.0,Phases=2,kv=0.22,kW=0.6632,pf=0.92,Vminpu=0.92,Vmaxpu=1.5,model=1,daily=RES2_13,status=variable
new load.3001638128M1 bus1=RML201841278.1.3.0,Phases=2,kv=0.22,kW=1.28082,pf=0.92,Vminpu=0.92,Vmaxpu=1.5,model=1,daily=RES2_9,status=variable
new load.3001638129M1 bus1=RML201841278.1.3.0,Phases=2,kv=0.22,kW=1.20144,pf=0.92,Vminpu=0.92,Vmaxpu=1.5,model=1,daily=RES2_4,status=variable