! manter este comentario para compatibilidade do C#
new circuit.alimVCS11 bus1=BMT126745672.1.2.3,basekv=13.800000000,pu=1.040000000

