new line.RML10076461 bus1=BBT1333813.1.2.0,bus2=RML210076461.1.2.0,Phases=2,Linecode=CABBTG05_4_2,Length=0.017000000,Units=km
new line.RML10077010 bus1=BBT1409588.1.2.0,bus2=RML210077010.1.2.0,Phases=2,Linecode=CABBTG05_4_2,Length=0.017000000,Units=km
new line.RML10077516 bus1=BBT137235683.1.2.0,bus2=RML210077516.1.2.0,Phases=2,Linecode=CABBTG05_4_2,Length=0.017000000,Units=km
new line.RML10077690 bus1=BBT133721641.1.2.0,bus2=RML210077690.1.2.0,Phases=2,Linecode=CABBTG05_4_2,Length=0.017000000,Units=km
new line.RML10078284 bus1=BBT1333813.1.2.0,bus2=RML210078284.1.2.0,Phases=2,Linecode=CABBTG05_4_2,Length=0.017000000,Units=km
new line.RML10078297 bus1=BBT143052823.1.2.0,bus2=RML210078297.1.2.0,Phases=2,Linecode=CABBTG05_4_2,Length=0.010000000,Units=km
new line.RML10078303 bus1=BBT143052837.1.2.0,bus2=RML210078303.1.2.0,Phases=2,Linecode=CABBTG05_4_2,Length=0.017000000,Units=km
new line.RML10078402 bus1=BBT147411709.1.2.0,bus2=RML210078402.1.2.0,Phases=2,Linecode=CABBTG05_4_2,Length=0.017000000,Units=km
new line.RML10078834 bus1=BBT1334359.1.2.0,bus2=RML210078834.1.2.0,Phases=2,Linecode=CABBTG05_4_2,Length=0.017000000,Units=km
new line.RML10195160 bus1=BBT1334359.1.0,bus2=RML210195160.1.0,Phases=1,Linecode=CABBTG02_4_1,Length=0.017000000,Units=km
new line.RML10275086 bus1=BBT1350480.1.2.0,bus2=RML210275086.1.2.0,Phases=2,Linecode=CABBTG05_4_2,Length=0.017000000,Units=km
new line.RML10275129 bus1=BBT144735812.1.2.3.0,bus2=RML210275129.1.2.3.0,Phases=3,Linecode=CABBTG06_4_3,Length=0.017000000,Units=km
new line.RML10275970 bus1=BBT1202542.1.2.3.0,bus2=RML210275970.1.2.3.0,Phases=3,Linecode=CABBTG06_4_3,Length=0.017000000,Units=km
new line.RML10276075 bus1=BBT1194156.1.0,bus2=RML210276075.1.0,Phases=1,Linecode=CABBTG02_4_1,Length=0.017000000,Units=km
new line.RML10276112 bus1=BBT1336186.1.0,bus2=RML210276112.1.0,Phases=1,Linecode=CABBTG02_4_1,Length=0.017000000,Units=km
new line.RML10276489 bus1=BBT2008424.1.2.3.0,bus2=RML210276489.1.2.3.0,Phases=3,Linecode=CABBTG06_4_3,Length=0.017000000,Units=km
new line.RML10278707 bus1=BBT2126115.2.0,bus2=RML210278707.2.0,Phases=1,Linecode=CABBTG02_4_1,Length=0.017000000,Units=km
new line.RML10278874 bus1=BBT11576229.1.2.0,bus2=RML210278874.1.2.0,Phases=2,Linecode=CABBTG05_4_2,Length=0.017000000,Units=km
new line.RML10340947 bus1=BBT150134549.1.2.3.0,bus2=RML210340947.1.2.3.0,Phases=3,Linecode=CABBTG06_4_3,Length=0.017000000,Units=km
new line.RML10340954 bus1=BBT1192322.1.2.0,bus2=RML210340954.1.2.0,Phases=2,Linecode=CABBTG05_4_2,Length=0.017000000,Units=km
new line.RML10395494 bus1=BBT1336158.1.0,bus2=RML210395494.1.0,Phases=1,Linecode=CABBTG02_4_1,Length=0.012000000,Units=km
new line.RML10396629 bus1=BBT1204117.2.0,bus2=RML210396629.2.0,Phases=1,Linecode=CABBTG02_4_1,Length=0.017000000,Units=km
new line.RML10397857 bus1=BBT163805273.1.0,bus2=RML210397857.1.0,Phases=1,Linecode=CABBTG02_4_1,Length=0.017000000,Units=km
new line.RML10397957 bus1=BBT163804806.1.2.0,bus2=RML210397957.1.2.0,Phases=2,Linecode=CABBTG05_4_2,Length=0.017000000,Units=km
new line.RML10398131 bus1=BBT1203466.1.2.0,bus2=RML210398131.1.2.0,Phases=2,Linecode=CABBTG05_4_2,Length=0.017000000,Units=km
new line.RML10456030 bus1=BBT1201751.1.2.3.0,bus2=RML210456030.1.2.3.0,Phases=3,Linecode=CABBTG06_4_3,Length=0.017000000,Units=km
new line.RML10456038 bus1=BBT1336256.1.2.0,bus2=RML210456038.1.2.0,Phases=2,Linecode=CABBTG05_4_2,Length=0.017000000,Units=km
new line.RML10456466 bus1=BBT2008459.1.2.0,bus2=RML210456466.1.2.0,Phases=2,Linecode=CABBTG05_4_2,Length=0.017000000,Units=km
new line.RML10512688 bus1=BBT2617263.1.2.0,bus2=RML210512688.1.2.0,Phases=2,Linecode=CABBTG05_4_2,Length=0.010000000,Units=km
new line.RML10519155 bus1=BBT1200603.1.2.3.0,bus2=RML210519155.1.2.3.0,Phases=3,Linecode=CABBTG06_4_3,Length=0.017000000,Units=km
new line.RML10520707 bus1=BBT1350480.1.2.0,bus2=RML210520707.1.2.0,Phases=2,Linecode=CABBTG05_4_2,Length=0.020000000,Units=km
new line.RML10580567 bus1=BBT1197075.2.0,bus2=RML210580567.2.0,Phases=1,Linecode=CABBTG02_4_1,Length=0.017000000,Units=km
new line.RML10582204 bus1=BBT157771988.1.2.0,bus2=RML210582204.1.2.0,Phases=2,Linecode=CABBTG05_4_2,Length=0.022000000,Units=km
new line.RML10582404 bus1=BBT157773358.1.0,bus2=RML210582404.1.0,Phases=1,Linecode=CABBTG02_4_1,Length=0.019000000,Units=km
new line.RML10583108 bus1=BBT157771988.1.0,bus2=RML210583108.1.0,Phases=1,Linecode=CABBTG02_4_1,Length=0.026000000,Units=km
new line.RML10583703 bus1=BBT157065061.1.2.3.0,bus2=RML210583703.1.2.3.0,Phases=3,Linecode=CABBT804_4_3,Length=0.020000000,Units=km
new line.RML10638362 bus1=BBT2126108.2.3.0,bus2=RML210638362.2.3.0,Phases=2,Linecode=CABBTG05_4_2,Length=0.008000000,Units=km
new line.RML10644414 bus1=BBT1202402.1.2.3.0,bus2=RML210644414.1.2.3.0,Phases=3,Linecode=CABBT809_4_3,Length=0.018000000,Units=km
new line.RML10041026 bus1=BBT2617900.2.3.0,bus2=RML210041026.2.3.0,Phases=2,Linecode=CABBTG05_4_2,Length=0.017000000,Units=km
new line.RML10041439 bus1=BBT1189305.1.2.0,bus2=RML210041439.1.2.0,Phases=2,Linecode=CABBTG05_4_2,Length=0.017000000,Units=km
new line.RML10041577 bus1=BBT1200155.1.2.3.0,bus2=RML210041577.1.2.3.0,Phases=3,Linecode=CABBTG06_4_3,Length=0.017000000,Units=km
new line.RML10041760 bus1=BBT2071830.1.2.0,bus2=RML210041760.1.2.0,Phases=2,Linecode=CABBTG05_4_2,Length=0.017000000,Units=km
new line.RML10041787 bus1=BBT1199735.1.0,bus2=RML210041787.1.0,Phases=1,Linecode=CABBTG02_4_1,Length=0.017000000,Units=km
new line.RML10042044 bus1=BBT1196676.1.0,bus2=RML210042044.1.0,Phases=1,Linecode=CABBTG02_4_1,Length=0.017000000,Units=km
new line.RML10042142 bus1=BBT1199147.1.0,bus2=RML210042142.1.0,Phases=1,Linecode=CABBTG02_4_1,Length=0.017000000,Units=km
new line.RML10042176 bus1=BBT144735812.1.2.3.0,bus2=RML210042176.1.2.3.0,Phases=3,Linecode=CABBTG06_4_3,Length=0.017000000,Units=km
new line.RML10042978 bus1=BBT1952592.1.2.0,bus2=RML210042978.1.2.0,Phases=2,Linecode=CABBTG05_4_2,Length=0.017000000,Units=km
new line.RML10043018 bus1=BBT1191510.1.0,bus2=RML210043018.1.0,Phases=1,Linecode=CABBTG02_4_1,Length=0.017000000,Units=km
new line.RML10043023 bus1=BBT1204950.1.2.3.0,bus2=RML210043023.1.2.3.0,Phases=3,Linecode=CABBTG06_4_3,Length=0.017000000,Units=km
new line.RML10043051 bus1=BBT1202472.1.0,bus2=RML210043051.1.0,Phases=1,Linecode=CABBTG02_4_1,Length=0.017000000,Units=km
new line.RML10043057 bus1=BBT1200155.1.2.3.0,bus2=RML210043057.1.2.3.0,Phases=3,Linecode=CABBTG06_4_3,Length=0.017000000,Units=km
new line.RML10043315 bus1=BBT1203893.1.2.0,bus2=RML210043315.1.2.0,Phases=2,Linecode=CABBTG05_4_2,Length=0.017000000,Units=km
new line.RML10043327 bus1=BBT1199203.1.2.0,bus2=RML210043327.1.2.0,Phases=2,Linecode=CABBTG05_4_2,Length=0.017000000,Units=km
new line.RML10043418 bus1=BBT1202500.1.0,bus2=RML210043418.1.0,Phases=1,Linecode=CABBTG02_4_1,Length=0.017000000,Units=km
new line.RML10043591 bus1=BBT1202444.1.2.0,bus2=RML210043591.1.2.0,Phases=2,Linecode=CABBTG05_4_2,Length=0.017000000,Units=km
new line.RML10043603 bus1=BBT1200288.1.0,bus2=RML210043603.1.0,Phases=1,Linecode=CABBTG02_4_1,Length=0.017000000,Units=km
new line.RML10046493 bus1=BBT2092137.1.0,bus2=RML210046493.1.0,Phases=1,Linecode=CABBTG02_4_1,Length=0.017000000,Units=km
new line.RML10046514 bus1=BBT1205020.1.2.0,bus2=RML210046514.1.2.0,Phases=2,Linecode=CABBTG05_4_2,Length=0.017000000,Units=km
new line.RML10121895 bus1=BBT1193463.1.2.0,bus2=RML210121895.1.2.0,Phases=2,Linecode=CABBTG05_4_2,Length=0.017000000,Units=km
new line.RML10126437 bus1=BBT1199609.1.0,bus2=RML210126437.1.0,Phases=1,Linecode=CABBTG02_4_1,Length=0.017000000,Units=km
new line.RML10126474 bus1=BBT1412829.1.2.0,bus2=RML210126474.1.2.0,Phases=2,Linecode=CABBTG05_4_2,Length=0.017000000,Units=km
new line.RML10127189 bus1=BBT1241112.1.0,bus2=RML210127189.1.0,Phases=1,Linecode=CABBTG02_4_1,Length=0.017000000,Units=km
new line.RML10127666 bus1=BBT1401041.1.2.0,bus2=RML210127666.1.2.0,Phases=2,Linecode=CABBTG05_4_2,Length=0.017000000,Units=km
new line.RML10353556 bus1=BBT1195969.1.2.0,bus2=RML210353556.1.2.0,Phases=2,Linecode=CABBTG05_4_2,Length=0.017000000,Units=km
new line.RML10353590 bus1=BBT1203907.1.2.0,bus2=RML210353590.1.2.0,Phases=2,Linecode=CABBTG05_4_2,Length=0.017000000,Units=km
new line.RML10467085 bus1=BBT1242379.1.3.0,bus2=RML210467085.1.3.0,Phases=2,Linecode=CABBTG05_4_2,Length=0.013000000,Units=km
new line.RML10472096 bus1=BBT2939445.1.2.0,bus2=RML210472096.1.2.0,Phases=2,Linecode=CABBTG05_4_2,Length=0.025000000,Units=km
new line.RML10586262 bus1=BBT2119465.1.2.3.0,bus2=RML210586262.1.2.3.0,Phases=3,Linecode=CABBTG06_4_3,Length=0.016000000,Units=km
new line.RML10591903 bus1=BBT1201240.1.0,bus2=RML210591903.1.0,Phases=1,Linecode=CABBTG02_4_1,Length=0.030000000,Units=km
new line.RML10746796 bus1=BBT1194282.1.2.0,bus2=RML210746796.1.2.0,Phases=2,Linecode=CABBTG05_4_2,Length=0.017000000,Units=km
new line.RML10749012 bus1=BBT3331753.1.2.3.0,bus2=RML210749012.1.2.3.0,Phases=3,Linecode=CABBTG07_4_3,Length=0.017000000,Units=km
new line.RML10750426 bus1=BBT2494854.1.2.0,bus2=RML210750426.1.2.0,Phases=2,Linecode=CABBT805_4_2,Length=0.017000000,Units=km
new line.RML10750951 bus1=BBT1205237.2.0,bus2=RML210750951.2.0,Phases=1,Linecode=CABBTG01_4_1,Length=0.017000000,Units=km
new line.RML10751131 bus1=BBT1242351.1.2.0,bus2=RML210751131.1.2.0,Phases=2,Linecode=CABBTG05_4_2,Length=0.017000000,Units=km
new line.RML10751674 bus1=BBT1203795.3.0,bus2=RML210751674.3.0,Phases=1,Linecode=CABBTG01_4_1,Length=0.017000000,Units=km
new line.RML10751843 bus1=BBT1203760.1.3.0,bus2=RML210751843.1.3.0,Phases=2,Linecode=CABBTG05_4_2,Length=0.017000000,Units=km
new line.RML10054213 bus1=BBT1242344.1.2.3.0,bus2=RML210054213.1.2.3.0,Phases=3,Linecode=CABBTG07_4_3,Length=0.017000000,Units=km
new line.RML10054282 bus1=BBT148393768.1.2.0,bus2=RML210054282.1.2.0,Phases=2,Linecode=CABBTG05_4_2,Length=0.024000000,Units=km
new line.RML10146837 bus1=BBT1191041.1.2.0,bus2=RML210146837.1.2.0,Phases=2,Linecode=CABBTG05_4_2,Length=0.017000000,Units=km
new line.RML10147449 bus1=BBT127740778.1.2.0,bus2=RML210147449.1.2.0,Phases=2,Linecode=CABBTG05_4_2,Length=0.017000000,Units=km
new line.RML10147735 bus1=BBT3592524.1.2.3.0,bus2=RML210147735.1.2.3.0,Phases=3,Linecode=CABBTG10_4_3,Length=0.017000000,Units=km
new line.RML10147845 bus1=BBT2008480.1.2.3.0,bus2=RML210147845.1.2.3.0,Phases=3,Linecode=CABBTG06_4_3,Length=0.017000000,Units=km
new line.RML10186531 bus1=BBT149193377.1.2.3.0,bus2=RML210186531.1.2.3.0,Phases=3,Linecode=CABBTG06_4_3,Length=0.017000000,Units=km
new line.RML10207702 bus1=BBT2319007.1.2.3.0,bus2=RML210207702.1.2.3.0,Phases=3,Linecode=CABBTG06_4_3,Length=0.017000000,Units=km
new line.RML10266041 bus1=BBT1350438.1.0,bus2=RML210266041.1.0,Phases=1,Linecode=CABBTG02_4_1,Length=0.017000000,Units=km
new line.RML10298745 bus1=BBT150131714.1.2.3.0,bus2=RML210298745.1.2.3.0,Phases=3,Linecode=CABBTG06_4_3,Length=0.017000000,Units=km
new line.RML10300762 bus1=BBT142908987.1.2.0,bus2=RML210300762.1.2.0,Phases=2,Linecode=CABBTG05_4_2,Length=0.017000000,Units=km
new line.RML10322327 bus1=BBT1201632.1.2.3.0,bus2=RML210322327.1.2.3.0,Phases=3,Linecode=CABBTG07_4_3,Length=0.017000000,Units=km
new line.RML10326492 bus1=BBT2119458.1.2.0,bus2=RML210326492.1.2.0,Phases=2,Linecode=CABBTG05_4_2,Length=0.017000000,Units=km
new line.RML10438816 bus1=BBT1188801.1.0,bus2=RML210438816.1.0,Phases=1,Linecode=CABBTG02_4_1,Length=0.017000000,Units=km
new line.RML10440858 bus1=BBT1194198.1.2.0,bus2=RML210440858.1.2.0,Phases=2,Linecode=CABBTG05_4_2,Length=0.017000000,Units=km
new line.RML10444073 bus1=BBT2278617.1.2.0,bus2=RML210444073.1.2.0,Phases=2,Linecode=CABBTG05_4_2,Length=0.017000000,Units=km
new line.RML10444145 bus1=BBT154209528.1.2.0,bus2=RML210444145.1.2.0,Phases=2,Linecode=CABBTG05_4_2,Length=0.023000000,Units=km
new line.RML10444173 bus1=BBT1188528.2.0,bus2=RML210444173.2.0,Phases=1,Linecode=CABBTG02_4_1,Length=0.017000000,Units=km
new line.RML10502636 bus1=BBT2008508.1.2.3.0,bus2=RML210502636.1.2.3.0,Phases=3,Linecode=CABBTG06_4_3,Length=0.022000000,Units=km
new line.RML10521358 bus1=BBT1333687.1.0,bus2=RML210521358.1.0,Phases=1,Linecode=CABBTG02_4_1,Length=0.010000000,Units=km
new line.RML10523365 bus1=BBT156038530.1.2.0,bus2=RML210523365.1.2.0,Phases=2,Linecode=CABBTG05_4_2,Length=0.006000000,Units=km
new line.RML10563333 bus1=BBT2319042.1.2.0,bus2=RML210563333.1.2.0,Phases=2,Linecode=CABBTG05_4_2,Length=0.017000000,Units=km
new line.RML10622429 bus1=BBT2602031.1.2.0,bus2=RML210622429.1.2.0,Phases=2,Linecode=CABBTG05_4_2,Length=0.014000000,Units=km
new line.RML10622467 bus1=BBT3331753.1.2.0,bus2=RML210622467.1.2.0,Phases=2,Linecode=CABBTG05_4_2,Length=0.017000000,Units=km
new line.RML10622475 bus1=BBT1200526.1.2.0,bus2=RML210622475.1.2.0,Phases=2,Linecode=CABBTG05_4_2,Length=0.025000000,Units=km
new line.RML10622498 bus1=BBT1244276.2.0,bus2=RML210622498.2.0,Phases=1,Linecode=CABBTG02_4_1,Length=0.017000000,Units=km
new line.RML10622501 bus1=BBT2254103.1.2.0,bus2=RML210622501.1.2.0,Phases=2,Linecode=CABBTG05_4_2,Length=0.011000000,Units=km
new line.RML10622503 bus1=BBT1196438.1.2.0,bus2=RML210622503.1.2.0,Phases=2,Linecode=CABBTG05_4_2,Length=0.017000000,Units=km
new line.RML10622505 bus1=BBT1200939.1.0,bus2=RML210622505.1.0,Phases=1,Linecode=CABBTG02_4_1,Length=0.017000000,Units=km
new line.RML10660110 bus1=BBT1201240.1.2.0,bus2=RML210660110.1.2.0,Phases=2,Linecode=CABBTG05_4_2,Length=0.017000000,Units=km
new line.RML10692279 bus1=BBT2131638.1.2.0,bus2=RML210692279.1.2.0,Phases=2,Linecode=CABBTG05_4_2,Length=0.017000000,Units=km
new line.RML10733743 bus1=BBT1194170.1.0,bus2=RML210733743.1.0,Phases=1,Linecode=CABBTG02_4_1,Length=0.017000000,Units=km
new line.RML10734589 bus1=BBT1205755.1.2.0,bus2=RML210734589.1.2.0,Phases=2,Linecode=CABBTG05_4_2,Length=0.017000000,Units=km
new line.RML10734883 bus1=BBT1201289.1.2.3.0,bus2=RML210734883.1.2.3.0,Phases=3,Linecode=CABBTG06_4_3,Length=0.017000000,Units=km
new line.RML10735915 bus1=BBT1199154.1.2.0,bus2=RML210735915.1.2.0,Phases=2,Linecode=CABBTG05_4_2,Length=0.017000000,Units=km
new line.RML10782408 bus1=BBT2617921.1.2.0,bus2=RML210782408.1.2.0,Phases=2,Linecode=CABBTG05_4_2,Length=0.025000000,Units=km
new line.RML10810967 bus1=BBT1195276.1.0,bus2=RML210810967.1.0,Phases=1,Linecode=CABBTG02_4_1,Length=0.017000000,Units=km
new line.RML10814336 bus1=BBT1336312.1.2.0,bus2=RML210814336.1.2.0,Phases=2,Linecode=CABBTG05_4_2,Length=0.017000000,Units=km
new line.RML10069857 bus1=BBT1202108.2.3.0,bus2=RML210069857.2.3.0,Phases=2,Linecode=CABBTG05_4_2,Length=0.010000000,Units=km
new line.RML10071021 bus1=BBT2278729.1.0,bus2=RML210071021.1.0,Phases=1,Linecode=CABBTG01_4_1,Length=0.022000000,Units=km
new line.RML10074497 bus1=BBT147561579.1.2.0,bus2=RML210074497.1.2.0,Phases=2,Linecode=CABBTG05_4_2,Length=0.017000000,Units=km
new line.RML10074584 bus1=BBT5538174.1.2.0,bus2=RML210074584.1.2.0,Phases=2,Linecode=CABBTG05_4_2,Length=0.017000000,Units=km
new line.RML10075404 bus1=BBT2496282.1.0,bus2=RML210075404.1.0,Phases=1,Linecode=CABBTG02_4_1,Length=0.017000000,Units=km
new line.RML10075655 bus1=BBT1350522.1.2.0,bus2=RML210075655.1.2.0,Phases=2,Linecode=CABBTG05_4_2,Length=0.017000000,Units=km
new line.RML10075693 bus1=BBT3038880.1.2.0,bus2=RML210075693.1.2.0,Phases=2,Linecode=CABBTG05_4_2,Length=0.017000000,Units=km
new line.RML10075801 bus1=BBT1333897.1.2.0,bus2=RML210075801.1.2.0,Phases=2,Linecode=CABBTG05_4_2,Length=0.017000000,Units=km
new line.RML10075884 bus1=BBT1420564.1.2.0,bus2=RML210075884.1.2.0,Phases=2,Linecode=CABBTG05_4_2,Length=0.017000000,Units=km
new line.RML10076136 bus1=BBT3592419.1.2.0,bus2=RML210076136.1.2.0,Phases=2,Linecode=CABBTG05_4_2,Length=0.017000000,Units=km
new line.RML10371372 bus1=BBT3251197.1.2.0,bus2=RML210371372.1.2.0,Phases=2,Linecode=CABBTG05_4_2,Length=0.017000000,Units=km
new line.RML10372195 bus1=BBT1205972.1.2.0,bus2=RML210372195.1.2.0,Phases=2,Linecode=CABBTG05_4_2,Length=0.017000000,Units=km
new line.RML10372964 bus1=BBT4031039.1.2.3.0,bus2=RML210372964.1.2.3.0,Phases=3,Linecode=CABBTG06_4_3,Length=0.017000000,Units=km
new line.RML10430896 bus1=BBT2092137.1.2.3.0,bus2=RML210430896.1.2.3.0,Phases=3,Linecode=CABBTG07_4_3,Length=0.017000000,Units=km
new line.RML10434189 bus1=BBT1192308.1.2.0,bus2=RML210434189.1.2.0,Phases=2,Linecode=CABBTG05_4_2,Length=0.017000000,Units=km
new line.RML10490198 bus1=BBT154123214.1.0,bus2=RML210490198.1.0,Phases=1,Linecode=CABBTG02_4_1,Length=0.017000000,Units=km
new line.RML10491727 bus1=BBT1192294.1.2.3.0,bus2=RML210491727.1.2.3.0,Phases=3,Linecode=CABBTG06_4_3,Length=0.011000000,Units=km
new line.RML10492577 bus1=BBT1194765.1.0,bus2=RML210492577.1.0,Phases=1,Linecode=CABBTG02_4_1,Length=0.017000000,Units=km
new line.RML10553331 bus1=BBT119252788.1.0,bus2=RML210553331.1.0,Phases=1,Linecode=CABBTG02_4_1,Length=0.020000000,Units=km
new line.RML10554825 bus1=BBT2119493.1.2.0,bus2=RML210554825.1.2.0,Phases=2,Linecode=CABBT811_4_2,Length=0.012000000,Units=km
new line.RML10558991 bus1=BBT1336312.1.2.0,bus2=RML210558991.1.2.0,Phases=2,Linecode=CABBTG05_4_2,Length=0.014000000,Units=km
new line.RML10558995 bus1=BBT1336368.1.2.0,bus2=RML210558995.1.2.0,Phases=2,Linecode=CABBTG05_4_2,Length=0.024000000,Units=km
new line.RML10623591 bus1=BBT2008501.2.3.0,bus2=RML210623591.2.3.0,Phases=2,Linecode=CABBTG05_4_2,Length=0.017000000,Units=km
new line.RML10625106 bus1=BBT2119500.1.3.0,bus2=RML210625106.1.3.0,Phases=2,Linecode=CABBTG05_4_2,Length=0.012000000,Units=km
new line.RML10625111 bus1=BBT1200946.1.2.0,bus2=RML210625111.1.2.0,Phases=2,Linecode=CABBTG05_4_2,Length=0.010000000,Units=km
new line.RML10678668 bus1=BBT149583109.1.2.0,bus2=RML210678668.1.2.0,Phases=2,Linecode=CABBTG05_4_2,Length=0.017000000,Units=km
new line.RML10679225 bus1=BBT1205692.2.0,bus2=RML210679225.2.0,Phases=1,Linecode=CABBTG01_4_1,Length=0.017000000,Units=km
new line.RML10682406 bus1=BBT1196774.1.2.0,bus2=RML210682406.1.2.0,Phases=2,Linecode=CABBTG05_4_2,Length=0.017000000,Units=km
new line.RML10739438 bus1=BBT2319098.1.2.3.0,bus2=RML210739438.1.2.3.0,Phases=3,Linecode=CABBTG07_4_3,Length=0.017000000,Units=km
new line.RML10739460 bus1=BBT1405612.1.2.3.0,bus2=RML210739460.1.2.3.0,Phases=3,Linecode=CABBTG07_4_3,Length=0.017000000,Units=km
new line.RML10745058 bus1=BBT1190936.2.3.0,bus2=RML210745058.2.3.0,Phases=2,Linecode=CABBTG05_4_2,Length=0.017000000,Units=km
new line.RML10801768 bus1=BBT1336312.1.2.0,bus2=RML210801768.1.2.0,Phases=2,Linecode=CABBTG05_4_2,Length=0.030000000,Units=km
new line.RML10801770 bus1=BBT2119549.1.0,bus2=RML210801770.1.0,Phases=1,Linecode=CABBTG02_4_1,Length=0.016000000,Units=km
new line.RML10801773 bus1=BBT1241042.2.0,bus2=RML210801773.2.0,Phases=1,Linecode=CABBTG02_4_1,Length=0.017000000,Units=km
new line.RML10802949 bus1=BBT1205776.1.2.3.0,bus2=RML210802949.1.2.3.0,Phases=3,Linecode=CABBTG06_4_3,Length=0.018000000,Units=km
new line.RML10804091 bus1=BBT1197026.3.0,bus2=RML210804091.3.0,Phases=1,Linecode=CABBTG02_4_1,Length=0.028000000,Units=km
new line.RML10804876 bus1=BBT1336312.1.2.0,bus2=RML210804876.1.2.0,Phases=2,Linecode=CABBTG05_4_2,Length=0.030000000,Units=km
new line.RML10872679 bus1=BBT1350242.1.0,bus2=RML210872679.1.0,Phases=1,Linecode=CABBTG02_4_1,Length=0.017000000,Units=km
new line.RML10064815 bus1=BBT3331739.1.2.3.0,bus2=RML210064815.1.2.3.0,Phases=3,Linecode=CABBTG06_4_3,Length=0.008000000,Units=km
new line.RML10116899 bus1=BBT2254124.1.2.0,bus2=RML210116899.1.2.0,Phases=2,Linecode=CABBTG05_4_2,Length=0.017000000,Units=km
new line.RML10296414 bus1=BBT1201632.1.2.3.0,bus2=RML210296414.1.2.3.0,Phases=3,Linecode=CABBTG06_4_3,Length=0.017000000,Units=km
new line.RML10296484 bus1=BBT148580908.1.2.0,bus2=RML210296484.1.2.0,Phases=2,Linecode=CABBTG05_4_2,Length=0.017000000,Units=km
new line.RML10418715 bus1=BBT2008473.1.2.3.0,bus2=RML210418715.1.2.3.0,Phases=3,Linecode=CABBTG06_4_3,Length=0.017000000,Units=km
new line.RML10419822 bus1=BBT1241091.1.0,bus2=RML210419822.1.0,Phases=1,Linecode=CABBTG02_4_1,Length=0.017000000,Units=km
new line.RML10420752 bus1=BBT1190656.1.2.3.0,bus2=RML210420752.1.2.3.0,Phases=3,Linecode=CABBTG06_4_3,Length=0.017000000,Units=km
new line.RML10537195 bus1=BBT1205755.1.2.3.0,bus2=RML210537195.1.2.3.0,Phases=3,Linecode=CABBTG06_4_3,Length=0.017000000,Units=km
new line.RML10537758 bus1=BBT1193498.2.0,bus2=RML210537758.2.0,Phases=1,Linecode=CABBTG02_4_1,Length=0.012000000,Units=km
new line.RML10537760 bus1=BBT3271371.2.0,bus2=RML210537760.2.0,Phases=1,Linecode=CABBTG02_4_1,Length=0.010000000,Units=km
new line.RML10544011 bus1=BBT156469312.1.2.0,bus2=RML210544011.1.2.0,Phases=2,Linecode=CABBTG05_4_2,Length=0.020000000,Units=km
new line.RML10544255 bus1=BBT2119500.1.3.0,bus2=RML210544255.1.3.0,Phases=2,Linecode=CABBTG05_4_2,Length=0.025000000,Units=km
new line.RML10603333 bus1=BBT2000913.1.0,bus2=RML210603333.1.0,Phases=1,Linecode=CABBTG02_4_1,Length=0.030000000,Units=km
new line.RML10603344 bus1=BBT1197670.1.2.0,bus2=RML210603344.1.2.0,Phases=2,Linecode=CABBTG05_4_2,Length=0.009000000,Units=km
new line.RML10664178 bus1=BBT1196886.1.2.3.0,bus2=RML210664178.1.2.3.0,Phases=3,Linecode=CABBT812_4_3,Length=0.020000000,Units=km
new line.RML10666484 bus1=BBT1199413.1.2.0,bus2=RML210666484.1.2.0,Phases=2,Linecode=CABBTG05_4_2,Length=0.020000000,Units=km
new line.RML10717530 bus1=BBT162926637.1.0,bus2=RML210717530.1.0,Phases=1,Linecode=CABBTG02_4_1,Length=0.020000000,Units=km
new line.RML10717531 bus1=BBT156469312.1.0,bus2=RML210717531.1.0,Phases=1,Linecode=CABBTG02_4_1,Length=0.020000000,Units=km
new line.RML10717625 bus1=BBT2319042.1.2.0,bus2=RML210717625.1.2.0,Phases=2,Linecode=CABBT811_4_2,Length=0.009000000,Units=km
new line.RML10718029 bus1=BBT1336312.1.2.0,bus2=RML210718029.1.2.0,Phases=2,Linecode=CABBTG05_4_2,Length=0.017000000,Units=km
new line.RML10718031 bus1=BBT2254103.1.0,bus2=RML210718031.1.0,Phases=1,Linecode=CABBTG02_4_1,Length=0.017000000,Units=km
new line.RML10719947 bus1=BBT1199602.1.0,bus2=RML210719947.1.0,Phases=1,Linecode=CABBTG02_4_1,Length=0.017000000,Units=km
new line.RML10721214 bus1=BBT1311350.1.0,bus2=RML210721214.1.0,Phases=1,Linecode=CABBTG02_4_1,Length=0.017000000,Units=km
new line.RML10721219 bus1=BBT155235958.1.2.3.0,bus2=RML210721219.1.2.3.0,Phases=3,Linecode=CABBTG06_4_3,Length=0.017000000,Units=km
new line.RML10722800 bus1=BBT2000913.1.0,bus2=RML210722800.1.0,Phases=1,Linecode=CABBTG02_4_1,Length=0.017000000,Units=km
new line.RML10722889 bus1=BBT2000913.1.2.0,bus2=RML210722889.1.2.0,Phases=2,Linecode=CABBTG05_4_2,Length=0.017000000,Units=km
new line.RML10722891 bus1=BBT2000913.1.0,bus2=RML210722891.1.0,Phases=1,Linecode=CABBTG02_4_1,Length=0.017000000,Units=km
new line.RML10722892 bus1=BBT2000913.1.0,bus2=RML210722892.1.0,Phases=1,Linecode=CABBTG02_4_1,Length=0.017000000,Units=km
new line.RML10722893 bus1=BBT2000913.1.0,bus2=RML210722893.1.0,Phases=1,Linecode=CABBTG02_4_1,Length=0.017000000,Units=km
new line.RML10786915 bus1=BBT161795061.1.2.0,bus2=RML210786915.1.2.0,Phases=2,Linecode=CABBTG05_4_2,Length=0.016000000,Units=km
new line.RML10789414 bus1=BBT1336312.1.0,bus2=RML210789414.1.0,Phases=1,Linecode=CABBTG02_4_1,Length=0.017000000,Units=km
new line.RML10789415 bus1=BBT1188808.1.2.3.0,bus2=RML210789415.1.2.3.0,Phases=3,Linecode=CABBTG06_4_3,Length=0.017000000,Units=km
new line.RML10853229 bus1=BBT1241084.1.2.0,bus2=RML210853229.1.2.0,Phases=2,Linecode=CABBTG05_4_2,Length=0.017000000,Units=km
new line.RML10853232 bus1=BBT2617921.1.2.0,bus2=RML210853232.1.2.0,Phases=2,Linecode=CABBTG05_4_2,Length=0.008000000,Units=km
new line.RML10853234 bus1=BBT2131631.1.2.3.0,bus2=RML210853234.1.2.3.0,Phases=3,Linecode=CABBTG06_4_3,Length=0.017000000,Units=km
new line.RML10853327 bus1=BBT166740860.1.2.0,bus2=RML210853327.1.2.0,Phases=2,Linecode=CABBTG05_4_2,Length=0.022000000,Units=km
new line.RML10854053 bus1=BBT1194667.2.0,bus2=RML210854053.2.0,Phases=1,Linecode=CABBTG02_4_1,Length=0.017000000,Units=km
new line.RML10908206 bus1=BBT1202605.2.3.0,bus2=RML210908206.2.3.0,Phases=2,Linecode=CABBTG05_4_2,Length=0.012000000,Units=km
new line.RML10164570 bus1=BBT1188535.1.2.0,bus2=RML210164570.1.2.0,Phases=2,Linecode=CABBTG05_4_2,Length=0.017000000,Units=km
new line.RML10227088 bus1=BBT3331746.2.0,bus2=RML210227088.2.0,Phases=1,Linecode=CABBTG02_4_1,Length=0.017000000,Units=km
new line.RML10344513 bus1=BBT1242365.1.2.3.0,bus2=RML210344513.1.2.3.0,Phases=3,Linecode=CABBTG06_4_3,Length=0.017000000,Units=km
new line.RML10344642 bus1=BBT3331697.1.2.0,bus2=RML210344642.1.2.0,Phases=2,Linecode=CABBTG05_4_2,Length=0.017000000,Units=km
new line.RML10346086 bus1=BBT1350382.1.2.0,bus2=RML210346086.1.2.0,Phases=2,Linecode=CABBTG05_4_2,Length=0.017000000,Units=km
new line.RML10403402 bus1=BBT149193533.1.2.0,bus2=RML210403402.1.2.0,Phases=2,Linecode=CABBTG04_4_2,Length=0.028000000,Units=km
new line.RML10403405 bus1=BBT5538174.1.2.0,bus2=RML210403405.1.2.0,Phases=2,Linecode=CABBTG05_4_2,Length=0.017000000,Units=km
new line.RML10405016 bus1=BBT1192245.1.2.0,bus2=RML210405016.1.2.0,Phases=2,Linecode=CABBTG05_4_2,Length=0.017000000,Units=km
new line.RML10405024 bus1=BBT1192714.1.2.0,bus2=RML210405024.1.2.0,Phases=2,Linecode=CABBTG05_4_2,Length=0.017000000,Units=km
new line.RML10407655 bus1=BBT137437437.1.2.0,bus2=RML210407655.1.2.0,Phases=2,Linecode=CABBTG05_4_2,Length=0.017000000,Units=km
new line.RML10407725 bus1=BBT1190915.2.3.0,bus2=RML210407725.2.3.0,Phases=2,Linecode=CABBTG05_4_2,Length=0.017000000,Units=km
new line.RML10462786 bus1=BBT1193890.1.2.0,bus2=RML210462786.1.2.0,Phases=2,Linecode=CABBTG05_4_2,Length=0.017000000,Units=km
new line.RML10531363 bus1=BBT2868136.1.0,bus2=RML210531363.1.0,Phases=1,Linecode=CABBTG02_4_1,Length=0.017000000,Units=km
new line.RML10532536 bus1=BBT156450897.2.0,bus2=RML210532536.2.0,Phases=1,Linecode=CABBTG02_4_1,Length=0.009000000,Units=km
new line.RML10535823 bus1=BBT155239477.1.2.3.0,bus2=RML210535823.1.2.3.0,Phases=3,Linecode=CABBTG06_4_3,Length=0.025000000,Units=km
new line.RML10535825 bus1=BBT147411709.1.2.0,bus2=RML210535825.1.2.0,Phases=2,Linecode=CABBTG05_4_2,Length=0.024000000,Units=km
new line.RML10535841 bus1=BBT147411709.1.2.0,bus2=RML210535841.1.2.0,Phases=2,Linecode=CABBTG05_4_2,Length=0.027000000,Units=km
new line.RML10535843 bus1=BBT1201247.1.2.0,bus2=RML210535843.1.2.0,Phases=2,Linecode=CABBTG05_4_2,Length=0.017000000,Units=km
new line.RML10594151 bus1=BBT1334625.1.0,bus2=RML210594151.1.0,Phases=1,Linecode=CABBTG02_4_1,Length=0.014000000,Units=km
new line.RML10594187 bus1=BBT1241028.1.2.0,bus2=RML210594187.1.2.0,Phases=2,Linecode=CABBTG05_4_2,Length=0.010000000,Units=km
new line.RML10599563 bus1=BBT2494854.1.2.0,bus2=RML210599563.1.2.0,Phases=2,Linecode=CABBT811_4_2,Length=0.006000000,Units=km
new line.RML10647710 bus1=BBT1336312.1.0,bus2=RML210647710.1.0,Phases=1,Linecode=CABBTG02_4_1,Length=0.017000000,Units=km
new line.RML10647715 bus1=BBT1336312.1.2.0,bus2=RML210647715.1.2.0,Phases=2,Linecode=CABBTG05_4_2,Length=0.017000000,Units=km
new line.RML10647718 bus1=BBT1336312.1.0,bus2=RML210647718.1.0,Phases=1,Linecode=CABBTG02_4_1,Length=0.017000000,Units=km
new line.RML10647723 bus1=BBT1194331.1.2.0,bus2=RML210647723.1.2.0,Phases=2,Linecode=CABBTG05_4_2,Length=0.016000000,Units=km
new line.RML10704378 bus1=BBT2617900.1.2.3.0,bus2=RML210704378.1.2.3.0,Phases=3,Linecode=CABBTG06_4_3,Length=0.017000000,Units=km
new line.RML10704381 bus1=BBT3331746.1.2.0,bus2=RML210704381.1.2.0,Phases=2,Linecode=CABBTG05_4_2,Length=0.017000000,Units=km
new line.RML10705436 bus1=BBT162151459.1.0,bus2=RML210705436.1.0,Phases=1,Linecode=CABBTG02_4_1,Length=0.017000000,Units=km
new line.RML10705656 bus1=BBT1412864.1.2.3.0,bus2=RML210705656.1.2.3.0,Phases=3,Linecode=CABBTG06_4_3,Length=0.010000000,Units=km
new line.RML10761807 bus1=BBT2008501.1.2.3.0,bus2=RML210761807.1.2.3.0,Phases=3,Linecode=CABBTG06_4_3,Length=0.020000000,Units=km
new line.RML10763438 bus1=BBT162304476.1.0,bus2=RML210763438.1.0,Phases=1,Linecode=CABBT802_4_1,Length=0.017000000,Units=km
new line.RML10767802 bus1=BBT1350004.1.2.0,bus2=RML210767802.1.2.0,Phases=2,Linecode=CABBTG05_4_2,Length=0.027000000,Units=km
new line.RML10767803 bus1=BBT1350004.1.2.0,bus2=RML210767803.1.2.0,Phases=2,Linecode=CABBTG05_4_2,Length=0.017000000,Units=km
new line.RML10767820 bus1=BBT1199609.1.0,bus2=RML210767820.1.0,Phases=1,Linecode=CABBTG02_4_1,Length=0.017000000,Units=km
new line.RML10768206 bus1=BBT1205727.1.0,bus2=RML210768206.1.0,Phases=1,Linecode=CABBTG02_4_1,Length=0.017000000,Units=km
new line.RML10768207 bus1=BBT1201555.1.0,bus2=RML210768207.1.0,Phases=1,Linecode=CABBTG02_4_1,Length=0.017000000,Units=km
new line.RML10846301 bus1=BBT1277883.1.2.0,bus2=RML210846301.1.2.0,Phases=2,Linecode=CABBTG05_4_2,Length=0.017000000,Units=km
new line.RML10901764 bus1=BBT1311406.2.0,bus2=RML210901764.2.0,Phases=1,Linecode=CABBTG02_4_1,Length=0.025000000,Units=km
new line.RML10046992 bus1=BBT2119549.1.0,bus2=RML210046992.1.0,Phases=1,Linecode=CABBTG02_4_1,Length=0.017000000,Units=km
new line.RML10048579 bus1=BBT2406577.1.0,bus2=RML210048579.1.0,Phases=1,Linecode=CABBTG02_4_1,Length=0.017000000,Units=km
new line.RML10050725 bus1=BBT146500281.1.2.0,bus2=RML210050725.1.2.0,Phases=2,Linecode=CABBTG05_4_2,Length=0.010000000,Units=km
new line.RML10164857 bus1=BBT1205832.1.2.0,bus2=RML210164857.1.2.0,Phases=2,Linecode=CABBTG05_4_2,Length=0.017000000,Units=km
new line.RML10166307 bus1=BBT1189998.1.2.3.0,bus2=RML210166307.1.2.3.0,Phases=3,Linecode=CABBTG06_4_3,Length=0.017000000,Units=km
new line.RML10166308 bus1=BBT5538174.1.0,bus2=RML210166308.1.0,Phases=1,Linecode=CABBTG02_4_1,Length=0.017000000,Units=km
new line.RML10166764 bus1=BBT3331704.1.2.0,bus2=RML210166764.1.2.0,Phases=2,Linecode=CABBTG05_4_2,Length=0.017000000,Units=km
new line.RML10167427 bus1=BBT148211864.1.2.0,bus2=RML210167427.1.2.0,Phases=2,Linecode=CABBTG05_4_2,Length=0.017000000,Units=km