new line.1143007 bus1=BBT1192217.1.2.3.0,bus2=BBT1192224.1.2.3.0,Phases=3,Linecode=BT810_BT810_4_3_4,Length=0.037790000,Units=km
new line.1143014 bus1=BBT1192217.1.2.3.0,bus2=BBT1192238.1.2.3.0,Phases=3,Linecode=BT810_BT810_4_3_4,Length=0.018750000,Units=km
new line.1143021 bus1=BBT1192224.1.2.3.0,bus2=BBT1192231.1.2.3.0,Phases=3,Linecode=BT810_BT810_4_3_4,Length=0.036840000,Units=km
new line.1143028 bus1=BBT1192224.1.2.0,bus2=BBT3063562.1.2.0,Phases=2,Linecode=BT808_BT808_4_2_3,Length=0.041060000,Units=km
new line.1143035 bus1=BBT3271378.1.2.3.0,bus2=BBT1192252.1.2.3.0,Phases=3,Linecode=BT803_BT803_4_3_4,Length=0.034610000,Units=km
new line.1143042 bus1=BBT1192238.1.2.3.0,bus2=BBT1192245.1.2.3.0,Phases=3,Linecode=BT810_BT810_4_3_4,Length=0.021680000,Units=km
new line.1143049 bus1=BBT1192252.1.2.3.0,bus2=BBT1192259.1.2.3.0,Phases=3,Linecode=BT803_BT803_4_3_4,Length=0.038230000,Units=km
new line.1143056 bus1=BBT1192259.1.2.3.0,bus2=BBT1192266.1.2.3.0,Phases=3,Linecode=BT803_BT803_4_3_4,Length=0.035340000,Units=km
new line.1143063 bus1=BBT1192266.1.2.3.0,bus2=BBT1192273.1.2.3.0,Phases=3,Linecode=BT803_BT803_4_3_4,Length=0.034730000,Units=km
new line.1143070 bus1=BBT1192273.1.2.3.0,bus2=BBT1192280.1.2.3.0,Phases=3,Linecode=BT803_BT803_4_3_4,Length=0.032250000,Units=km
new line.1143077 bus1=BBT1192301.1.2.3.0,bus2=BBT1192294.1.2.3.0,Phases=3,Linecode=BT107_BT107_7_3_1,Length=0.029420000,Units=km
new line.1143084 bus1=BBT1192308.1.2.3.0,bus2=BBT1192301.1.2.3.0,Phases=3,Linecode=BT107_BT107_7_3_1,Length=0.030320000,Units=km
new line.1143098 bus1=BBT1192315.1.2.3.0,bus2=BBT1192308.1.2.3.0,Phases=3,Linecode=BT108_BT108_7_3_1,Length=0.031020000,Units=km
new line.1143105 bus1=BBT1192329.1.2.3.0,bus2=BBT1192315.1.2.3.0,Phases=3,Linecode=BT108_BT108_7_3_1,Length=0.041110000,Units=km
new line.1143112 bus1=BBT1192287.1.2.3.0,bus2=BBT1192329.1.2.3.0,Phases=3,Linecode=BT307_BT307_7_3_1,Length=0.000510000,Units=km
new line.1143119 bus1=BBT1192329.1.2.3.0,bus2=BBT1192336.1.2.3.0,Phases=3,Linecode=BT108_BT108_7_3_1,Length=0.028880000,Units=km
new line.1143126 bus1=BBT1192336.1.2.3.0,bus2=BBT1192322.1.2.3.0,Phases=3,Linecode=BT107_BT107_7_3_1,Length=0.033900000,Units=km
new line.1143133 bus1=BBT1192336.1.2.3.0,bus2=BBT1192343.1.2.3.0,Phases=3,Linecode=BT108_BT108_7_3_1,Length=0.025960000,Units=km
new line.1143140 bus1=BBT1192343.1.2.3.0,bus2=BBT1192357.1.2.3.0,Phases=3,Linecode=BT108_BT108_7_3_1,Length=0.023120000,Units=km
new line.1143147 bus1=BBT1192357.1.2.3.0,bus2=BBT1192364.1.2.3.0,Phases=3,Linecode=BT108_BT108_7_3_1,Length=0.028130000,Units=km
new line.1143154 bus1=BBT1192364.1.2.3.0,bus2=BBT1192350.1.2.3.0,Phases=3,Linecode=BT810_BT810_4_3_4,Length=0.038940000,Units=km
new line.1143161 bus1=BBT1192364.1.2.3.0,bus2=BBT1192371.1.2.3.0,Phases=3,Linecode=BT810_BT810_4_3_4,Length=0.035170000,Units=km
new line.1143168 bus1=BBT1192392.1.2.3.0,bus2=BBT1192385.1.2.3.0,Phases=3,Linecode=BT803_BT803_4_3_4,Length=0.032840000,Units=km
new line.1143175 bus1=BBT1192399.1.2.3.0,bus2=BBT1192392.1.2.3.0,Phases=3,Linecode=BT803_BT803_4_3_4,Length=0.031420000,Units=km
new line.1143182 bus1=BBT1192378.1.2.3.0,bus2=BBT1192399.1.2.3.0,Phases=3,Linecode=BT509_BT509_7_3_1,Length=0.000510000,Units=km
new line.1143189 bus1=BBT1192399.1.2.3.0,bus2=BBT1192406.1.2.3.0,Phases=3,Linecode=BT803_BT803_4_3_4,Length=0.026120000,Units=km
new line.1143196 bus1=BBT1192406.1.2.3.0,bus2=BBT1192413.1.2.3.0,Phases=3,Linecode=BT803_BT803_4_3_4,Length=0.024070000,Units=km
new line.1143203 bus1=BBT1192406.1.2.3.0,bus2=BBT2387530.1.2.3.0,Phases=3,Linecode=BT810_BT810_4_3_4,Length=0.021610000,Units=km
new line.1143210 bus1=BBT1192413.1.2.3.0,bus2=BBT1192420.1.2.3.0,Phases=3,Linecode=BT803_BT803_4_3_4,Length=0.029990000,Units=km
new line.1143217 bus1=BBT1192420.1.2.3.0,bus2=BBT1192427.1.2.3.0,Phases=3,Linecode=BT810_BT810_4_3_4,Length=0.035690000,Units=km
new line.1143224 bus1=BBT1192427.1.2.3.0,bus2=BBT1194660.1.2.3.0,Phases=3,Linecode=BT810_BT810_4_3_4,Length=0.036780000,Units=km
new line.1143231 bus1=BBT2092123.1.2.3.0,bus2=BBT2276370.1.2.3.0,Phases=3,Linecode=BT108_BT108_7_3_1,Length=0.033220000,Units=km
new line.1143238 bus1=BBT1192448.1.2.3.0,bus2=BBT2217514.1.2.3.0,Phases=3,Linecode=BT108_BT108_7_3_1,Length=0.023480000,Units=km
new line.1143245 bus1=BBT1192455.1.2.3.0,bus2=BBT1192448.1.2.3.0,Phases=3,Linecode=BT108_BT108_7_3_1,Length=0.023810000,Units=km
new line.1143252 bus1=BBT1192462.1.2.3.0,bus2=BBT1192455.1.2.3.0,Phases=3,Linecode=BT108_BT108_7_3_1,Length=0.037610000,Units=km
new line.1143259 bus1=BBT1192469.1.2.3.0,bus2=BBT1192462.1.2.3.0,Phases=3,Linecode=BT108_BT108_7_3_1,Length=0.032010000,Units=km
new line.1143266 bus1=BBT1192441.1.2.3.0,bus2=BBT1192469.1.2.3.0,Phases=3,Linecode=BT513_BT513_7_3_1,Length=0.000510000,Units=km
new line.1143273 bus1=BBT1192469.1.2.3.0,bus2=BBT1192476.1.2.3.0,Phases=3,Linecode=BT108_BT107_7_3_1,Length=0.033900000,Units=km
new line.1143280 bus1=BBT1192476.1.2.3.0,bus2=BBT1192483.1.2.3.0,Phases=3,Linecode=BT108_BT107_7_3_1,Length=0.031420000,Units=km
new line.1143287 bus1=BBT1192483.1.2.3.0,bus2=BBT1194219.1.2.3.0,Phases=3,Linecode=BT108_BT107_7_3_1,Length=0.031020000,Units=km
new line.1143455 bus1=BBT2092137.1.2.3.0,bus2=BBT2092144.1.2.3.0,Phases=3,Linecode=BT108_BT107_7_3_1,Length=0.023120000,Units=km
new line.1143462 bus1=BBT1192679.1.2.0,bus2=BBT1192686.1.2.0,Phases=2,Linecode=BT107_BT106_7_2_1,Length=0.036490000,Units=km
new line.1143469 bus1=BBT1192679.1.2.0,bus2=BBT1192672.1.2.0,Phases=2,Linecode=BT108_BT107_7_2_1,Length=0.025190000,Units=km
new line.1143476 bus1=BBT1192693.1.2.0,bus2=BBT1192679.1.2.0,Phases=2,Linecode=BT108_BT107_7_2_1,Length=0.025800000,Units=km
new line.1143483 bus1=BBT1192700.1.2.0,bus2=BBT1192693.1.2.0,Phases=2,Linecode=BT108_BT107_7_2_1,Length=0.025000000,Units=km
new line.1143490 bus1=BBT1192700.1.2.0,bus2=BBT1192714.1.2.0,Phases=2,Linecode=BT801_BT801_4_2_3,Length=0.029570000,Units=km
new line.1143497 bus1=BBT1192707.1.2.0,bus2=BBT1192700.1.2.0,Phases=2,Linecode=BT108_BT107_7_2_1,Length=0.024240000,Units=km
new line.1143504 bus1=BBT1192665.1.2.0,bus2=BBT1192707.1.2.0,Phases=2,Linecode=BT307_BT307_7_2_1,Length=0.000510000,Units=km
new line.1143511 bus1=BBT1192707.1.2.0,bus2=BBT1192721.1.2.0,Phases=2,Linecode=BT108_BT107_7_2_1,Length=0.024180000,Units=km
new line.1143518 bus1=BBT1192721.1.2.0,bus2=BBT1192728.1.2.0,Phases=2,Linecode=BT108_BT107_7_2_1,Length=0.023120000,Units=km
new line.1143525 bus1=BBT1192721.1.2.0,bus2=BBT1192735.1.2.0,Phases=2,Linecode=BT107_BT107_7_2_1,Length=0.021610000,Units=km
new line.1143532 bus1=BBT1192728.1.2.0,bus2=BBT3070051.1.2.0,Phases=2,Linecode=BT808_BT808_4_2_3,Length=0.036400000,Units=km
new line.1143539 bus1=BBT1192735.1.2.0,bus2=BBT1192742.1.2.0,Phases=2,Linecode=BT107_BT107_7_2_1,Length=0.033670000,Units=km
new line.1143553 bus1=BBT1192742.1.2.0,bus2=BBT1192749.1.2.0,Phases=2,Linecode=BT107_BT107_7_2_1,Length=0.032840000,Units=km
new line.1143574 bus1=BBT154679233.1.2.3.0,bus2=BBT1192770.1.2.3.0,Phases=3,Linecode=BT805_BT805_4_3_4,Length=0.020930000,Units=km
new line.1143581 bus1=BBT1192756.1.2.3.0,bus2=BBT154679233.1.2.3.0,Phases=3,Linecode=BT513_BT513_7_3_1,Length=0.000510000,Units=km
new line.1143588 bus1=BBT1192770.1.2.3.0,bus2=BBT1192777.1.2.3.0,Phases=3,Linecode=BT805_BT805_4_3_4,Length=0.036780000,Units=km
new line.1143595 bus1=BBT1192784.1.2.3.0,bus2=BBT106933845.1.2.3.0,Phases=3,Linecode=BT805_BT805_4_3_4,Length=0.020240000,Units=km
new line.1147991 bus1=BBT1197068.1.2.3.0,bus2=BBT1197026.1.2.3.0,Phases=3,Linecode=BT809_BT809_4_3_4,Length=0.034190000,Units=km
new line.1147998 bus1=BBT1197068.1.2.3.0,bus2=BBT1197082.1.2.3.0,Phases=3,Linecode=BT803_BT803_4_3_4,Length=0.026590000,Units=km
new line.1148005 bus1=BBT1197068.1.2.3.0,bus2=BBT2386683.1.2.3.0,Phases=3,Linecode=BT810_BT810_4_3_4,Length=0.008710000,Units=km
new line.1148012 bus1=BBT1197082.1.2.3.0,bus2=BBT1197047.1.2.3.0,Phases=3,Linecode=BT803_BT803_4_3_4,Length=0.027360000,Units=km
new line.1148019 bus1=BBT1197089.1.2.3.0,bus2=BBT1952081.1.2.3.0,Phases=3,Linecode=BT803_BT803_4_3_4,Length=0.029990000,Units=km
new line.1148026 bus1=BBT1952074.1.2.3.0,bus2=BBT1197089.1.2.3.0,Phases=3,Linecode=BT509_BT509_7_3_1,Length=0.000510000,Units=km
new line.1148033 bus1=BBT1197089.1.2.3.0,bus2=BBT1952116.1.2.3.0,Phases=3,Linecode=BT803_BT803_4_3_4,Length=0.026320000,Units=km
new line.1148390 bus1=BBT1197439.1.2.3.0,bus2=BBT1197453.1.2.3.0,Phases=3,Linecode=BT108_BT107_7_3_1,Length=0.029570000,Units=km
new line.1148397 bus1=BBT1197446.1.2.3.0,bus2=BBT1952627.1.2.3.0,Phases=3,Linecode=BT108_BT107_7_3_1,Length=0.030660000,Units=km
new line.1148404 bus1=BBT1952634.1.2.3.0,bus2=BBT1952641.1.2.3.0,Phases=3,Linecode=BT108_BT107_7_3_1,Length=0.030610000,Units=km
new line.1148411 bus1=BBT1197460.1.2.3.0,bus2=BBT1197446.1.2.3.0,Phases=3,Linecode=BT108_BT107_7_3_1,Length=0.030590000,Units=km
new line.1148418 bus1=BBT1197460.1.2.3.0,bus2=BBT1952634.1.2.3.0,Phases=3,Linecode=BT108_BT107_7_3_1,Length=0.028550000,Units=km
new line.1148425 bus1=BBT1197432.1.2.3.0,bus2=BBT1197460.1.2.3.0,Phases=3,Linecode=BT307_BT307_7_3_1,Length=0.000510000,Units=km
new line.1148593 bus1=BBT1197621.1.2.3.0,bus2=BBT1197628.1.2.3.0,Phases=3,Linecode=BT803_BT803_4_3_4,Length=0.035690000,Units=km
new line.1148600 bus1=BBT1197628.1.2.3.0,bus2=BBT1197635.1.2.3.0,Phases=3,Linecode=BT803_BT803_4_3_4,Length=0.032700000,Units=km
new line.1148607 bus1=BBT1197642.1.2.3.0,bus2=BBT1197621.1.2.3.0,Phases=3,Linecode=BT803_BT803_4_3_4,Length=0.021510000,Units=km
new line.1148614 bus1=BBT1197614.1.2.3.0,bus2=BBT1197649.1.2.3.0,Phases=3,Linecode=BT307_BT307_7_3_1,Length=0.000510000,Units=km
new line.1148621 bus1=BBT1197649.1.2.3.0,bus2=BBT1197656.1.2.3.0,Phases=3,Linecode=BT803_BT803_4_3_4,Length=0.018390000,Units=km
new line.1148628 bus1=BBT1197649.1.2.3.0,bus2=BBT1952648.1.2.3.0,Phases=3,Linecode=BT803_BT803_4_3_4,Length=0.022530000,Units=km
new line.1148635 bus1=BBT1197656.1.2.3.0,bus2=BBT1197663.1.2.3.0,Phases=3,Linecode=BT803_BT803_4_3_4,Length=0.028350000,Units=km
new line.1148642 bus1=BBT1197663.1.2.3.0,bus2=BBT1197670.1.2.3.0,Phases=3,Linecode=BT809_BT809_4_3_4,Length=0.026920000,Units=km
new line.1148649 bus1=BBT1197670.1.2.3.0,bus2=BBT1198706.1.2.3.0,Phases=3,Linecode=BT809_BT809_4_3_4,Length=0.028720000,Units=km
new line.1148656 bus1=BBT1198706.1.2.3.0,bus2=BBT2136279.1.2.3.0,Phases=3,Linecode=BT803_BT803_4_3_4,Length=0.035810000,Units=km
new line.1148719 bus1=BBT1197747.1.2.3.0,bus2=BBT1197740.1.2.3.0,Phases=3,Linecode=BT803_BT803_4_3_4,Length=0.032200000,Units=km
new line.1148726 bus1=BBT1197754.1.2.3.0,bus2=BBT1952669.1.2.3.0,Phases=3,Linecode=BT803_BT803_4_3_4,Length=0.026830000,Units=km
new line.1148733 bus1=BBT1197761.1.2.3.0,bus2=BBT1197754.1.2.3.0,Phases=3,Linecode=BT803_BT803_4_3_4,Length=0.028000000,Units=km
new line.1148740 bus1=BBT1197761.1.2.3.0,bus2=BBT1197810.1.2.3.0,Phases=3,Linecode=BT809_BT809_4_3_4,Length=0.028720000,Units=km
new line.1148747 bus1=BBT1197768.1.2.3.0,bus2=BBT1197782.1.2.3.0,Phases=3,Linecode=BT803_BT803_4_3_4,Length=0.011400000,Units=km
new line.1148754 bus1=BBT1197768.1.2.3.0,bus2=BBT1950317.1.2.3.0,Phases=3,Linecode=BT803_BT803_4_3_4,Length=0.019400000,Units=km
new line.1148761 bus1=BBT1197775.1.2.3.0,bus2=BBT1197761.1.2.3.0,Phases=3,Linecode=BT803_BT803_4_3_4,Length=0.017370000,Units=km
new line.1148768 bus1=BBT1197775.1.2.3.0,bus2=BBT1197768.1.2.3.0,Phases=3,Linecode=BT803_BT803_4_3_4,Length=0.016350000,Units=km
new line.1148775 bus1=BBT1197733.1.2.3.0,bus2=BBT1197775.1.2.3.0,Phases=3,Linecode=BT513_BT513_7_3_1,Length=0.000510000,Units=km
new line.1148782 bus1=BBT1197782.1.2.3.0,bus2=BBT1197789.1.2.3.0,Phases=3,Linecode=BT809_BT809_4_3_4,Length=0.024670000,Units=km
new line.1148789 bus1=BBT1197782.1.2.3.0,bus2=BBT1197817.1.2.3.0,Phases=3,Linecode=BT803_BT803_4_3_4,Length=0.020320000,Units=km
new line.1148796 bus1=BBT1197789.1.2.3.0,bus2=BBT1197796.1.2.3.0,Phases=3,Linecode=BT809_BT809_4_3_4,Length=0.022010000,Units=km
new line.1148803 bus1=BBT1197796.1.2.3.0,bus2=BBT1197803.1.2.3.0,Phases=3,Linecode=BT809_BT809_4_3_4,Length=0.021510000,Units=km
new line.1148810 bus1=BBT1197796.1.2.3.0,bus2=BBT1197824.1.2.3.0,Phases=3,Linecode=BT809_BT809_4_3_4,Length=0.029020000,Units=km
new line.1148817 bus1=BBT1197817.1.2.3.0,bus2=BBT1950310.1.2.3.0,Phases=3,Linecode=BT803_BT803_4_3_4,Length=0.026000000,Units=km
new line.1148908 bus1=BBT1197901.1.2.3.0,bus2=BBT1197908.1.2.3.0,Phases=3,Linecode=BT309_BT309_7_3_1,Length=0.000510000,Units=km
new line.1148915 bus1=BBT1197908.1.2.3.0,bus2=BBT1197915.1.2.3.0,Phases=3,Linecode=BT108_BT108_7_3_1,Length=0.028550000,Units=km
new line.1148922 bus1=BBT1197908.1.2.3.0,bus2=BBT1197929.1.2.3.0,Phases=3,Linecode=BT108_BT108_7_3_1,Length=0.029650000,Units=km
new line.1148929 bus1=BBT1197915.1.2.3.0,bus2=BBT1197922.1.2.3.0,Phases=3,Linecode=BT108_BT108_7_3_1,Length=0.030590000,Units=km
new line.1148943 bus1=BBT1197922.1.2.3.0,bus2=BBT1197943.1.2.3.0,Phases=3,Linecode=BT108_BT108_7_3_1,Length=0.023540000,Units=km
new line.1148950 bus1=BBT1197929.1.2.3.0,bus2=BBT1197936.1.2.3.0,Phases=3,Linecode=BT108_BT108_7_3_1,Length=0.022530000,Units=km
new line.1148957 bus1=BBT1197936.1.2.3.0,bus2=BBT1197950.1.2.3.0,Phases=3,Linecode=BT108_BT108_7_3_1,Length=0.013300000,Units=km
new line.1148964 bus1=BBT1197943.1.2.3.0,bus2=BBT1197964.1.2.3.0,Phases=3,Linecode=BT108_BT108_7_3_1,Length=0.021510000,Units=km
new line.1148971 bus1=BBT1197950.1.2.3.0,bus2=BBT1197957.1.2.3.0,Phases=3,Linecode=BT108_BT108_7_3_1,Length=0.013720000,Units=km
new line.1148978 bus1=BBT1197957.1.2.3.0,bus2=BBT1197971.1.2.3.0,Phases=3,Linecode=BT108_BT108_7_3_1,Length=0.033300000,Units=km
new line.1148985 bus1=BBT1197992.1.2.3.0,bus2=BBT1197985.1.2.3.0,Phases=3,Linecode=BT803_BT803_4_3_4,Length=0.033650000,Units=km
new line.1148999 bus1=BBT1197999.1.2.3.0,bus2=BBT1197992.1.2.3.0,Phases=3,Linecode=BT803_BT803_4_3_4,Length=0.036710000,Units=km
new line.1149006 bus1=BBT1197978.1.2.3.0,bus2=BBT1197999.1.2.3.0,Phases=3,Linecode=BT309_BT309_7_3_1,Length=0.000510000,Units=km
new line.1149013 bus1=BBT1197999.1.2.3.0,bus2=BBT1198006.1.2.3.0,Phases=3,Linecode=BT803_BT803_4_3_4,Length=0.030610000,Units=km
new line.1149020 bus1=BBT1198006.1.2.3.0,bus2=BBT1198013.1.2.3.0,Phases=3,Linecode=BT803_BT803_4_3_4,Length=0.031880000,Units=km
new line.1149027 bus1=BBT1198013.1.2.3.0,bus2=BBT1198020.1.2.3.0,Phases=3,Linecode=BT803_BT803_4_3_4,Length=0.020620000,Units=km
new line.1149034 bus1=BBT1198027.1.2.3.0,bus2=BBT1952585.1.2.3.0,Phases=3,Linecode=BT805_BT805_4_3_4,Length=0.022460000,Units=km
new line.1149041 bus1=BBT1198034.1.2.3.0,bus2=BBT1198027.1.2.3.0,Phases=3,Linecode=BT805_BT805_4_3_4,Length=0.031680000,Units=km
new line.1149048 bus1=BBT1198034.1.2.3.0,bus2=BBT1198048.1.2.3.0,Phases=3,Linecode=BT803_BT803_4_3_4,Length=0.032650000,Units=km
new line.1149055 bus1=BBT1198034.1.2.3.0,bus2=BBT1198055.1.2.3.0,Phases=3,Linecode=BT803_BT803_4_3_4,Length=0.037750000,Units=km
new line.10049696 bus1=BBT146500274.1.2.0,bus2=BBT146500281.1.2.0,Phases=2,Linecode=BT521_BT521_7_2_1,Length=0.000510000,Units=km
new line.1138891 bus1=BBT1188262.1.2.0,bus2=BBT1188255.1.2.0,Phases=2,Linecode=BT108_BT107_7_2_1,Length=0.030970000,Units=km
new line.1138898 bus1=BBT1188269.1.2.0,bus2=BBT1188262.1.2.0,Phases=2,Linecode=BT108_BT107_7_2_1,Length=0.032840000,Units=km
new line.1138905 bus1=BBT1188248.1.2.0,bus2=BBT1188269.1.2.0,Phases=2,Linecode=BT307_BT307_7_2_1,Length=0.000510000,Units=km
new line.1138912 bus1=BBT1188269.1.2.0,bus2=BBT1188276.1.2.0,Phases=2,Linecode=BT108_BT107_7_2_1,Length=0.031080000,Units=km
new line.1138919 bus1=BBT1188276.1.2.0,bus2=BBT1188283.1.2.0,Phases=2,Linecode=BT108_BT107_7_2_1,Length=0.031070000,Units=km
new line.1138926 bus1=BBT1188290.1.2.3.0,bus2=BBT2596648.1.2.3.0,Phases=3,Linecode=BT803_BT803_4_3_4,Length=0.031630000,Units=km
new line.1139087 bus1=BBT1188430.1.2.3.0,bus2=BBT1188423.1.2.3.0,Phases=3,Linecode=BT803_BT803_4_3_4,Length=0.032700000,Units=km
new line.1139094 bus1=BBT1188437.1.2.3.0,bus2=BBT1188430.1.2.3.0,Phases=3,Linecode=BT803_BT803_4_3_4,Length=0.010200000,Units=km
new line.1139101 bus1=BBT1188437.1.2.3.0,bus2=BBT1188766.1.2.3.0,Phases=3,Linecode=BT803_BT803_4_3_4,Length=0.005100000,Units=km
new line.1139108 bus1=BBT1188437.1.2.3.0,bus2=BBT1188479.1.2.3.0,Phases=3,Linecode=BT803_BT803_4_3_4,Length=0.013680000,Units=km
new line.1139115 bus1=BBT1188451.1.2.3.0,bus2=BBT1188458.1.2.3.0,Phases=3,Linecode=BT803_BT803_4_3_4,Length=0.031630000,Units=km
new line.1139122 bus1=BBT1188458.1.2.3.0,bus2=BBT1188444.1.2.3.0,Phases=3,Linecode=BT803_BT803_4_3_4,Length=0.032780000,Units=km
new line.1139129 bus1=BBT1188458.1.2.3.0,bus2=BBT2119570.1.2.3.0,Phases=3,Linecode=BT803_BT803_4_3_4,Length=0.032590000,Units=km
new line.1139136 bus1=BBT1188472.1.2.3.0,bus2=BBT1188437.1.2.3.0,Phases=3,Linecode=BT803_BT803_4_3_4,Length=0.020420000,Units=km
new line.1139143 bus1=BBT1188472.1.2.3.0,bus2=BBT1188451.1.2.3.0,Phases=3,Linecode=BT803_BT803_4_3_4,Length=0.034810000,Units=km
new line.1139150 bus1=BBT1188416.1.2.3.0,bus2=BBT1188472.1.2.3.0,Phases=3,Linecode=BT513_BT513_7_3_1,Length=0.000510000,Units=km
new line.1139157 bus1=BBT1188479.1.2.3.0,bus2=BBT1188486.1.2.3.0,Phases=3,Linecode=BT803_BT803_4_3_4,Length=0.022370000,Units=km
new line.1139164 bus1=BBT1188486.1.2.3.0,bus2=BBT1188493.1.2.3.0,Phases=3,Linecode=BT803_BT803_4_3_4,Length=0.019800000,Units=km
new line.1139171 bus1=BBT1188486.1.2.3.0,bus2=BBT1188500.1.2.3.0,Phases=3,Linecode=BT803_BT803_4_3_4,Length=0.016880000,Units=km
new line.1139178 bus1=BBT1188493.1.2.3.0,bus2=BBT1188507.1.2.3.0,Phases=3,Linecode=BT803_BT803_4_3_4,Length=0.025560000,Units=km
new line.1139185 bus1=BBT1188500.1.2.3.0,bus2=BBT1189256.1.2.3.0,Phases=3,Linecode=BT803_BT803_4_3_4,Length=0.025190000,Units=km
new line.1139192 bus1=BBT1188507.1.2.3.0,bus2=BBT2898929.1.2.3.0,Phases=3,Linecode=BT803_BT803_4_3_4,Length=0.021900000,Units=km
new line.1139199 bus1=BBT1188528.1.2.3.0,bus2=BBT1188521.1.2.3.0,Phases=3,Linecode=BT803_BT803_4_3_4,Length=0.030870000,Units=km
new line.1139206 bus1=BBT1188535.1.2.3.0,bus2=BBT1188528.1.2.3.0,Phases=3,Linecode=BT803_BT803_4_3_4,Length=0.031880000,Units=km
new line.1139213 bus1=BBT1188542.1.2.3.0,bus2=BBT1188535.1.2.3.0,Phases=3,Linecode=BT803_BT803_4_3_4,Length=0.028840000,Units=km
new line.1139220 bus1=BBT1188549.1.2.3.0,bus2=BBT1188542.1.2.3.0,Phases=3,Linecode=BT803_BT803_4_3_4,Length=0.029730000,Units=km
new line.1139227 bus1=BBT1188556.1.2.3.0,bus2=BBT1188549.1.2.3.0,Phases=3,Linecode=BT803_BT803_4_3_4,Length=0.028630000,Units=km
new line.1139234 bus1=BBT1188514.1.2.3.0,bus2=BBT1188556.1.2.3.0,Phases=3,Linecode=BT518_BT518_7_3_1,Length=0.000510000,Units=km
new line.1139241 bus1=BBT1188556.1.2.3.0,bus2=BBT1188563.1.2.3.0,Phases=3,Linecode=BT803_BT803_4_3_4,Length=0.032020000,Units=km
new line.1139248 bus1=BBT1188563.1.2.3.0,bus2=BBT1188570.1.2.3.0,Phases=3,Linecode=BT803_BT803_4_3_4,Length=0.019620000,Units=km
new line.1139255 bus1=BBT1188570.1.2.3.0,bus2=BBT1188577.1.2.3.0,Phases=3,Linecode=BT803_BT803_4_3_4,Length=0.017460000,Units=km
new line.1139262 bus1=BBT1188577.1.2.3.0,bus2=BBT1188584.1.2.3.0,Phases=3,Linecode=BT803_BT803_4_3_4,Length=0.030660000,Units=km
new line.1139269 bus1=BBT1188584.1.2.3.0,bus2=BBT2119458.1.2.3.0,Phases=3,Linecode=BT803_BT803_4_3_4,Length=0.031680000,Units=km
new line.1139451 bus1=BBT1188766.1.2.3.0,bus2=BBT1188773.1.2.3.0,Phases=3,Linecode=BT803_BT803_4_3_4,Length=0.021800000,Units=km
new line.1139458 bus1=BBT1188773.1.2.3.0,bus2=BBT138814008.1.2.3.0,Phases=3,Linecode=BT803_BT803_4_3_4,Length=0.024240000,Units=km
new line.1139465 bus1=BBT1188787.1.2.3.0,bus2=BBT1188780.1.2.3.0,Phases=3,Linecode=BT108_BT108_7_3_1,Length=0.024650000,Units=km
new line.1139472 bus1=BBT1188787.1.2.3.0,bus2=BBT1188794.1.2.3.0,Phases=3,Linecode=BT108_BT108_7_3_1,Length=0.021900000,Units=km
new line.1139479 bus1=BBT1189011.1.2.3.0,bus2=BBT1189004.1.2.3.0,Phases=3,Linecode=BT107_BT107_7_3_1,Length=0.030870000,Units=km
new line.1139486 bus1=BBT1188801.1.2.3.0,bus2=BBT1188787.1.2.3.0,Phases=3,Linecode=BT803_BT803_4_3_4,Length=0.033340000,Units=km
new line.1139493 bus1=BBT1188759.1.2.3.0,bus2=BBT1188801.1.2.3.0,Phases=3,Linecode=BT307_BT307_7_3_1,Length=0.000510000,Units=km
new line.1139500 bus1=BBT1188801.1.2.3.0,bus2=BBT1188808.1.2.3.0,Phases=3,Linecode=BT803_BT803_4_3_4,Length=0.029220000,Units=km
new line.1139507 bus1=BBT1188808.1.2.3.0,bus2=BBT1188815.1.2.3.0,Phases=3,Linecode=BT803_BT803_4_3_4,Length=0.036560000,Units=km
new line.1139514 bus1=BBT1188815.1.2.3.0,bus2=BBT1188822.1.2.3.0,Phases=3,Linecode=BT107_BT107_7_3_1,Length=0.030270000,Units=km
new line.1139521 bus1=BBT1188822.1.2.3.0,bus2=BBT1188829.1.2.3.0,Phases=3,Linecode=BT107_BT107_7_3_1,Length=0.029650000,Units=km
new line.1139612 bus1=BBT1188941.1.2.0,bus2=BBT1188934.1.2.0,Phases=2,Linecode=BT107_BT106_7_2_1,Length=0.025500000,Units=km
new line.1139619 bus1=BBT1188941.1.2.0,bus2=BBT2389980.1.2.0,Phases=2,Linecode=BT808_BT808_4_2_3,Length=0.042710000,Units=km
new line.1139626 bus1=BBT1188948.1.2.0,bus2=BBT1188941.1.2.0,Phases=2,Linecode=BT108_BT107_7_2_1,Length=0.035090000,Units=km
new line.1139633 bus1=BBT1188955.1.2.0,bus2=BBT1188948.1.2.0,Phases=2,Linecode=BT108_BT107_7_2_1,Length=0.035620000,Units=km
new line.1139640 bus1=BBT1188927.1.2.0,bus2=BBT1188955.1.2.0,Phases=2,Linecode=BT513_BT513_7_2_1,Length=0.000510000,Units=km
new line.1139647 bus1=BBT1188955.1.2.0,bus2=BBT1188962.1.2.0,Phases=2,Linecode=BT108_BT107_7_2_1,Length=0.028350000,Units=km
new line.1139654 bus1=BBT1188962.1.2.0,bus2=BBT1188976.1.2.0,Phases=2,Linecode=BT108_BT107_7_2_1,Length=0.026140000,Units=km
new line.1139661 bus1=BBT1188976.1.2.0,bus2=BBT1188969.1.2.0,Phases=2,Linecode=BT106_BT106_7_2_1,Length=0.030680000,Units=km
new line.1139668 bus1=BBT1188983.1.2.3.0,bus2=BBT155152046.1.2.3.0,Phases=3,Linecode=BT803_BT803_4_3_4,Length=0.043030000,Units=km
new line.1139675 bus1=BBT1189004.1.2.3.0,bus2=BBT1188997.1.2.3.0,Phases=3,Linecode=BT107_BT107_7_3_1,Length=0.027000000,Units=km
new line.1139682 bus1=BBT1189018.1.2.3.0,bus2=BBT1189011.1.2.3.0,Phases=3,Linecode=BT108_BT107_7_3_1,Length=0.024900000,Units=km
new line.1139689 bus1=BBT1189025.1.2.3.0,bus2=BBT1189018.1.2.3.0,Phases=3,Linecode=BT108_BT107_7_3_1,Length=0.027150000,Units=km
new line.1139696 bus1=BBT1189032.1.2.3.0,bus2=BBT1189025.1.2.3.0,Phases=3,Linecode=BT108_BT107_7_3_1,Length=0.025190000,Units=km
new line.1149062 bus1=BBT1198041.1.2.3.0,bus2=BBT1952599.1.2.3.0,Phases=3,Linecode=BT803_BT803_4_3_4,Length=0.023460000,Units=km
new line.1149069 bus1=BBT1198048.1.2.3.0,bus2=BBT1198041.1.2.3.0,Phases=3,Linecode=BT803_BT803_4_3_4,Length=0.029570000,Units=km
new line.1149076 bus1=BBT1198055.1.2.3.0,bus2=BBT1952592.1.2.3.0,Phases=3,Linecode=BT803_BT803_4_3_4,Length=0.031610000,Units=km
new line.1149083 bus1=BBT1198062.1.2.3.0,bus2=BBT1198034.1.2.3.0,Phases=3,Linecode=BT805_BT805_4_3_4,Length=0.022460000,Units=km
new line.1149090 bus1=BBT1952571.1.2.3.0,bus2=BBT1198062.1.2.3.0,Phases=3,Linecode=BT513_BT513_7_3_1,Length=0.000510000,Units=km
new line.1149097 bus1=BBT1198062.1.2.3.0,bus2=BBT1198083.1.2.3.0,Phases=3,Linecode=BT805_BT805_4_3_4,Length=0.021440000,Units=km
new line.1149104 bus1=BBT1198069.1.2.3.0,bus2=BBT3202932.1.2.3.0,Phases=3,Linecode=BT810_BT810_4_3_4,Length=0.033200000,Units=km
new line.1149111 bus1=BBT1198076.1.2.3.0,bus2=BBT1198069.1.2.3.0,Phases=3,Linecode=BT803_BT803_4_3_4,Length=0.027530000,Units=km
new line.1149118 bus1=BBT1198083.1.2.3.0,bus2=BBT1198076.1.2.3.0,Phases=3,Linecode=BT803_BT803_4_3_4,Length=0.029590000,Units=km
new line.1149125 bus1=BBT1198083.1.2.3.0,bus2=BBT2117526.1.2.3.0,Phases=3,Linecode=BT803_BT803_4_3_4,Length=0.026530000,Units=km
new line.1149223 bus1=BBT1198209.1.2.3.0,bus2=BBT1198202.1.2.3.0,Phases=3,Linecode=BT111_BT108_7_3_1,Length=0.023480000,Units=km
new line.1149230 bus1=BBT1198216.1.2.3.0,bus2=BBT1198209.1.2.3.0,Phases=3,Linecode=BT111_BT108_7_3_1,Length=0.029730000,Units=km
new line.1149237 bus1=BBT1198195.1.2.3.0,bus2=BBT1198216.1.2.3.0,Phases=3,Linecode=BT311_BT311_7_3_1,Length=0.000510000,Units=km
new line.1149244 bus1=BBT1198216.1.2.3.0,bus2=BBT1198223.1.2.3.0,Phases=3,Linecode=BT111_BT108_7_3_1,Length=0.033900000,Units=km
new line.1149251 bus1=BBT1198223.1.2.3.0,bus2=BBT1198230.1.2.3.0,Phases=3,Linecode=BT803_BT803_4_3_4,Length=0.041610000,Units=km
new line.1149258 bus1=BBT1198237.1.2.3.0,bus2=BBT157071871.1.2.3.0,Phases=3,Linecode=BT111_BT108_7_3_1,Length=0.034880000,Units=km
new line.1149265 bus1=BBT1198237.1.2.3.0,bus2=BBT1198244.1.2.3.0,Phases=3,Linecode=BT111_BT108_7_3_1,Length=0.039360000,Units=km
new line.1149272 bus1=BBT1198272.1.2.3.0,bus2=BBT1196690.1.2.3.0,Phases=3,Linecode=BT803_BT803_4_3_4,Length=0.038440000,Units=km
new line.1149279 bus1=BBT1198279.1.2.3.0,bus2=BBT1198300.1.2.3.0,Phases=3,Linecode=BT809_BT809_4_3_4,Length=0.018390000,Units=km
new line.1149286 bus1=BBT1198286.1.2.3.0,bus2=BBT1198272.1.2.3.0,Phases=3,Linecode=BT803_BT803_4_3_4,Length=0.034190000,Units=km
new line.1149293 bus1=BBT1198251.1.2.3.0,bus2=BBT1198286.1.2.3.0,Phases=3,Linecode=BT307_BT307_7_3_1,Length=0.000510000,Units=km
new line.1149300 bus1=BBT1198286.1.2.3.0,bus2=BBT1198293.1.2.3.0,Phases=3,Linecode=BT803_BT803_4_3_4,Length=0.026480000,Units=km
new line.1149307 bus1=BBT1198293.1.2.3.0,bus2=BBT1198307.1.2.3.0,Phases=3,Linecode=BT803_BT803_4_3_4,Length=0.037610000,Units=km
new line.1149314 bus1=BBT1198293.1.2.3.0,bus2=BBT1198314.1.2.3.0,Phases=3,Linecode=BT809_BT809_4_3_4,Length=0.029220000,Units=km
new line.1149321 bus1=BBT1199175.1.2.3.0,bus2=BBT1199182.1.2.3.0,Phases=3,Linecode=BT809_BT809_4_3_4,Length=0.039990000,Units=km
new line.1149328 bus1=BBT1952123.1.2.3.0,bus2=BBT1198328.1.2.3.0,Phases=3,Linecode=BT803_BT803_4_3_4,Length=0.040340000,Units=km
new line.1149335 bus1=BBT1198321.1.2.3.0,bus2=BBT1952130.1.2.3.0,Phases=3,Linecode=BT803_BT803_4_3_4,Length=0.029650000,Units=km
new line.1149342 bus1=BBT1198328.1.2.3.0,bus2=BBT1198335.1.2.3.0,Phases=3,Linecode=BT803_BT803_4_3_4,Length=0.024830000,Units=km
new line.1149349 bus1=BBT1198335.1.2.3.0,bus2=BBT1198321.1.2.3.0,Phases=3,Linecode=BT803_BT803_4_3_4,Length=0.030320000,Units=km
new line.1149608 bus1=BBT1198601.1.2.3.0,bus2=BBT1196767.1.2.3.0,Phases=3,Linecode=BT108_BT107_7_3_1,Length=0.028720000,Units=km
new line.1149615 bus1=BBT1198580.1.2.3.0,bus2=BBT1198601.1.2.3.0,Phases=3,Linecode=BT311_BT311_7_3_1,Length=0.000510000,Units=km
new line.1149622 bus1=BBT1198601.1.2.3.0,bus2=BBT1198615.1.2.3.0,Phases=3,Linecode=BT518_BT518_5_3_1,Length=0.055460000,Units=km
new line.1149629 bus1=BBT1198601.1.2.3.0,bus2=BBT1198622.1.2.3.0,Phases=3,Linecode=BT108_BT107_7_3_1,Length=0.030680000,Units=km
new line.1149636 bus1=BBT1198622.1.2.3.0,bus2=BBT1198608.1.2.3.0,Phases=3,Linecode=BT809_BT809_4_3_4,Length=0.022010000,Units=km
new line.1149643 bus1=BBT1198622.1.2.3.0,bus2=BBT1198629.1.2.3.0,Phases=3,Linecode=BT108_BT107_7_3_1,Length=0.019050000,Units=km
new line.1149650 bus1=BBT1198629.1.2.3.0,bus2=BBT1198643.1.2.3.0,Phases=3,Linecode=BT108_BT107_7_3_1,Length=0.022270000,Units=km
new line.1149657 bus1=BBT1198643.1.2.3.0,bus2=BBT1198636.1.2.3.0,Phases=3,Linecode=BT108_BT107_7_3_1,Length=0.007970000,Units=km
new line.1149720 bus1=BBT1198713.1.2.3.0,bus2=BBT1198734.1.2.3.0,Phases=3,Linecode=BT803_BT803_4_3_4,Length=0.029730000,Units=km
new line.1149727 bus1=BBT1198720.1.2.3.0,bus2=BBT1198713.1.2.3.0,Phases=3,Linecode=BT803_BT803_4_3_4,Length=0.032950000,Units=km
new line.1149734 bus1=BBT1198699.1.2.3.0,bus2=BBT1198720.1.2.3.0,Phases=3,Linecode=BT307_BT307_7_3_1,Length=0.000510000,Units=km
new line.1149741 bus1=BBT1198720.1.2.3.0,bus2=BBT1198727.1.2.3.0,Phases=3,Linecode=BT803_BT803_4_3_4,Length=0.033550000,Units=km
new line.1149748 bus1=BBT1198727.1.2.3.0,bus2=BBT1198741.1.2.3.0,Phases=3,Linecode=BT809_BT809_4_3_4,Length=0.031070000,Units=km
new line.1149755 bus1=BBT1198734.1.2.3.0,bus2=BBT1198748.1.2.3.0,Phases=3,Linecode=BT809_BT809_4_3_4,Length=0.008220000,Units=km
new line.1149762 bus1=BBT1198741.1.2.3.0,bus2=BBT1198762.1.2.3.0,Phases=3,Linecode=BT809_BT809_4_3_4,Length=0.028790000,Units=km
new line.1149769 bus1=BBT1198748.1.2.3.0,bus2=BBT1198755.1.2.3.0,Phases=3,Linecode=BT809_BT809_4_3_4,Length=0.017810000,Units=km
new line.1149776 bus1=BBT1198755.1.2.3.0,bus2=BBT1198769.1.2.3.0,Phases=3,Linecode=BT809_BT809_4_3_4,Length=0.029730000,Units=km
new line.1150042 bus1=BBT2126108.2.3.0,bus2=BBT2126115.2.3.0,Phases=2,Linecode=BT106_BT106_7_2_1,Length=0.038230000,Units=km
new line.1150049 bus1=BBT2126101.2.3.0,bus2=BBT2126108.2.3.0,Phases=2,Linecode=BT106_BT106_7_2_1,Length=0.025580000,Units=km
new line.1150056 bus1=BBT1199028.2.3.0,bus2=BBT2126101.2.3.0,Phases=2,Linecode=BT106_BT106_7_2_1,Length=0.033790000,Units=km
new line.1150063 bus1=BBT1199035.2.3.0,bus2=BBT1199028.2.3.0,Phases=2,Linecode=BT106_BT106_7_2_1,Length=0.033410000,Units=km
new line.1150070 bus1=BBT1199042.1.2.3.0,bus2=BBT1199035.1.2.3.0,Phases=3,Linecode=BT108_BT107_7_3_1,Length=0.031220000,Units=km
new line.1150077 bus1=BBT1199049.1.2.3.0,bus2=BBT1199042.1.2.3.0,Phases=3,Linecode=BT108_BT107_7_3_1,Length=0.033200000,Units=km
new line.1150084 bus1=BBT1199021.1.2.3.0,bus2=BBT1199049.1.2.3.0,Phases=3,Linecode=BT521_BT521_7_3_1,Length=0.000510000,Units=km
new line.1150091 bus1=BBT1199049.1.2.3.0,bus2=BBT1199056.1.2.3.0,Phases=3,Linecode=BT108_BT107_7_3_1,Length=0.027740000,Units=km
new line.1150098 bus1=BBT1199056.1.2.3.0,bus2=BBT3535481.1.2.3.0,Phases=3,Linecode=BT108_BT107_7_3_1,Length=0.005770000,Units=km
new line.1150105 bus1=BBT1199063.1.2.3.0,bus2=BBT1199070.1.2.3.0,Phases=3,Linecode=BT108_BT107_7_3_1,Length=0.023540000,Units=km
new line.1150112 bus1=BBT1199070.1.2.3.0,bus2=BBT1199077.1.2.3.0,Phases=3,Linecode=BT108_BT107_7_3_1,Length=0.019350000,Units=km