new transformer.1045137 Phases=1,Windings=3,Buses=[BMT100961107.2 BBT7295521.1.0 BBT7295521.0.2],Conns=[wye wye wye],kvs=[7.967 0.12 0.12],kvas=[5.000000000 5.000000000 5.000000000],Taps=[1,1.000000000,1.000000000],%loadloss=1.900000000,%noloadloss=0.600000000
new transformer.1109222 Phases=3,Windings=2,Buses=[BMT165779956.1.2.3 BBT25061087.1.2.3.0],Conns=[delta wye],kvs=[13.8 0.22],kvas=[75.000000000 75.000000000],Taps=[1,1.000000000],%loadloss=1.340000000,%noloadloss=0.340000000
new transformer.1214355 Phases=3,Windings=2,Buses=[BMT165779965.1.2.3 BBT46118879.1.2.3.0],Conns=[delta wye],kvs=[13.8 0.22],kvas=[75.000000000 75.000000000],Taps=[1,1.000000000],%loadloss=1.340000000,%noloadloss=0.340000000
new transformer.1214432 Phases=3,Windings=2,Buses=[BMT165779967.1.2.3 BBT46144002.1.2.3.0],Conns=[delta wye],kvs=[13.8 0.22],kvas=[75.000000000 75.000000000],Taps=[1,1.000000000],%loadloss=1.340000000,%noloadloss=0.340000000
new transformer.1214446 Phases=3,Windings=2,Buses=[BMT166637396.1.2.3 BBT46162328.1.2.3.0],Conns=[delta wye],kvs=[13.8 0.22],kvas=[75.000000000 75.000000000],Taps=[1,1.000000000],%loadloss=1.340000000,%noloadloss=0.340000000
new transformer.1340110 Phases=3,Windings=2,Buses=[BMT166051781.1.2.3 BBT108181943.1.2.3.0],Conns=[delta wye],kvs=[13.8 0.22],kvas=[45.000000000 45.000000000],Taps=[1,1.000000000],%loadloss=1.522000000,%noloadloss=0.377777000
new transformer.1341671 Phases=3,Windings=2,Buses=[BMT159188321.1.2.3 BBT109224901.1.2.3.0],Conns=[delta wye],kvs=[13.8 0.22],kvas=[45.000000000 45.000000000],Taps=[1,1.000000000],%loadloss=1.522000000,%noloadloss=0.377777000
new transformer.1342119 Phases=3,Windings=2,Buses=[BMT115277703.1.2.3 BBT109522464.1.2.3.0],Conns=[delta wye],kvs=[13.8 0.22],kvas=[45.000000000 45.000000000],Taps=[1,1.000000000],%loadloss=1.522000000,%noloadloss=0.377777000
new transformer.1364449 Phases=3,Windings=2,Buses=[BMT165090247.1.2.3 BBT127361572.1.2.3.0],Conns=[delta wye],kvs=[13.8 0.22],kvas=[45.000000000 45.000000000],Taps=[1,1.000000000],%loadloss=1.522000000,%noloadloss=0.377777000
new transformer.1364736 Phases=3,Windings=2,Buses=[BMT164228109.1.2.3 BBT127456548.1.2.3.0],Conns=[delta wye],kvs=[13.8 0.22],kvas=[150.000000000 150.000000000],Taps=[1,1.000000000],%loadloss=1.127000000,%noloadloss=0.280000000
new transformer.1365947 Phases=3,Windings=2,Buses=[BMT152520233.1.2.3 BBT128284641.1.2.3.0],Conns=[delta wye],kvs=[13.8 0.22],kvas=[45.000000000 45.000000000],Taps=[1,1.000000000],%loadloss=1.522000000,%noloadloss=0.377777000
new transformer.1366759 Phases=3,Windings=2,Buses=[BMT171262357.1.2.3 BBT128766248.1.2.3.0],Conns=[delta wye],kvs=[13.8 0.22],kvas=[45.000000000 45.000000000],Taps=[1,1.000000000],%loadloss=1.522000000,%noloadloss=0.377777000
new transformer.1400097 Phases=3,Windings=2,Buses=[BMT150595639.1.2.3 BBT150442359.1.2.3.0],Conns=[delta wye],kvs=[13.8 0.22],kvas=[75.000000000 75.000000000],Taps=[1,1.000000000],%loadloss=1.340000000,%noloadloss=0.340000000
new transformer.1417002 Phases=1,Windings=3,Buses=[BMT172829136.1 BBT154401111.1.0 BBT154401111.0.2],Conns=[wye wye wye],kvs=[7.967 0.12 0.12],kvas=[5.000000000 5.000000000 5.000000000],Taps=[1,1.000000000,1.000000000],%loadloss=1.900000000,%noloadloss=0.600000000
new transformer.1424686 Phases=3,Windings=2,Buses=[BMT166566251.1.2.3 BBT156038744.1.2.3.0],Conns=[delta wye],kvs=[13.8 0.22],kvas=[250.000000000 250.000000000],Taps=[1,1.000000000],%loadloss=0.990000000,%noloadloss=0.280000000
new transformer.1430896 Phases=3,Windings=2,Buses=[BMT158968685.1.2.3 BBT157409937.1.2.3.0],Conns=[delta wye],kvs=[13.8 0.22],kvas=[75.000000000 75.000000000],Taps=[1,1.000000000],%loadloss=1.340000000,%noloadloss=0.340000000
new transformer.1431050 Phases=3,Windings=2,Buses=[BMT157441417.1.2.3 BBT157441272.1.2.3.0],Conns=[delta wye],kvs=[13.8 0.22],kvas=[100.000000000 100.000000000],Taps=[1,1.000000000],%loadloss=1.218000000,%noloadloss=0.335000000
new transformer.1431515 Phases=3,Windings=2,Buses=[BMT165779954.1.2.3 BBT157549374.1.2.3.0],Conns=[delta wye],kvs=[13.8 0.22],kvas=[45.000000000 45.000000000],Taps=[1,1.000000000],%loadloss=1.522000000,%noloadloss=0.377777000
new transformer.1441956 Phases=3,Windings=2,Buses=[BMT159576010.1.2.3 BBT159575501.1.2.3.0],Conns=[delta wye],kvs=[13.8 0.22],kvas=[75.000000000 75.000000000],Taps=[1,1.000000000],%loadloss=1.340000000,%noloadloss=0.340000000
new transformer.1442458 Phases=3,Windings=2,Buses=[BMT165779961.1.2.3 BBT159668875.1.2.3.0],Conns=[delta wye],kvs=[13.8 0.22],kvas=[45.000000000 45.000000000],Taps=[1,1.000000000],%loadloss=1.522000000,%noloadloss=0.377777000
new transformer.1447760 Phases=3,Windings=2,Buses=[BMT161151165.1.2.3 BBT161151171.1.2.3.0],Conns=[delta wye],kvs=[13.8 0.22],kvas=[150.000000000 150.000000000],Taps=[1,1.000000000],%loadloss=1.127000000,%noloadloss=0.280000000
new transformer.1448069 Phases=3,Windings=2,Buses=[BMT165269612.1.2.3 BBT161222478.1.2.3.0],Conns=[delta wye],kvs=[13.8 0.22],kvas=[75.000000000 75.000000000],Taps=[1,1.000000000],%loadloss=1.340000000,%noloadloss=0.340000000
new transformer.1468094 Phases=3,Windings=2,Buses=[BMT171262222.1.2.3 BBT166109139.1.2.3.0],Conns=[delta wye],kvs=[13.8 0.22],kvas=[150.000000000 150.000000000],Taps=[1,1.000000000],%loadloss=1.127000000,%noloadloss=0.280000000
new transformer.1468226 Phases=3,Windings=2,Buses=[BMT172829134.1.2.3 BBT166139432.1.2.3.0],Conns=[delta wye],kvs=[13.8 0.22],kvas=[150.000000000 150.000000000],Taps=[1,1.000000000],%loadloss=1.127000000,%noloadloss=0.280000000
new transformer.1468640 Phases=3,Windings=2,Buses=[BMT166888709.1.2.3 BBT166224980.1.2.3.0],Conns=[delta wye],kvs=[13.8 0.22],kvas=[150.000000000 150.000000000],Taps=[1,1.000000000],%loadloss=1.127000000,%noloadloss=0.280000000
new transformer.1473656 Phases=3,Windings=2,Buses=[BMT167013542.1.2.3 BBT167012961.1.2.3.0],Conns=[delta wye],kvs=[13.8 0.22],kvas=[75.000000000 75.000000000],Taps=[1,1.000000000],%loadloss=1.340000000,%noloadloss=0.340000000
new transformer.1494021 Phases=3,Windings=2,Buses=[BMT170769341.1.2.3 BBT170769310.1.2.3.0],Conns=[delta wye],kvs=[13.8 0.22],kvas=[150.000000000 150.000000000],Taps=[1,1.000000000],%loadloss=1.127000000,%noloadloss=0.280000000
new transformer.1042526 Phases=1,Windings=3,Buses=[BMT158853374.3 BBT7169248.1.0 BBT7169248.0.2],Conns=[wye wye wye],kvs=[7.967 0.12 0.12],kvas=[15.000000000 15.000000000 15.000000000],Taps=[1,1.000000000,1.000000000],%loadloss=1.600000000,%noloadloss=0.400000000
new transformer.1043114 Phases=3,Windings=2,Buses=[BMT113855205.1.2.3 BBT7204010.1.2.3.0],Conns=[delta wye],kvs=[13.8 0.22],kvas=[45.000000000 45.000000000],Taps=[1,1.000000000],%loadloss=1.522000000,%noloadloss=0.377777000
new transformer.1059319 Phases=3,Windings=2,Buses=[BMT166199896.1.2.3 BBT10845403.1.2.3.0],Conns=[delta wye],kvs=[13.8 0.22],kvas=[45.000000000 45.000000000],Taps=[1,1.000000000],%loadloss=1.522000000,%noloadloss=0.377777000
new transformer.1059340 Phases=3,Windings=2,Buses=[BMT151253306.1.2.3 BBT10853838.1.2.3.0],Conns=[delta wye],kvs=[13.8 0.22],kvas=[30.000000000 30.000000000],Taps=[1,1.000000000],%loadloss=1.667000000,%noloadloss=0.433333000
new transformer.1102670 Phases=3,Windings=2,Buses=[BMT170641610.1.2.3 BBT23920528.1.2.3.0],Conns=[delta wye],kvs=[13.8 0.22],kvas=[75.000000000 75.000000000],Taps=[1,1.000000000],%loadloss=1.340000000,%noloadloss=0.340000000
new transformer.1248879 Phases=3,Windings=2,Buses=[BMT161029636.1.2.3 BBT59823360.1.2.3.0],Conns=[delta wye],kvs=[13.8 0.22],kvas=[45.000000000 45.000000000],Taps=[1,1.000000000],%loadloss=1.522000000,%noloadloss=0.377777000
new transformer.1251322 Phases=3,Windings=2,Buses=[BMT132317159.1.2.3 BBT60677864.1.2.3.0],Conns=[delta wye],kvs=[13.8 0.22],kvas=[45.000000000 45.000000000],Taps=[1,1.000000000],%loadloss=1.522000000,%noloadloss=0.377777000
new transformer.1271720 Phases=1,Windings=3,Buses=[BMT172594448.1 BBT84700611.1.0 BBT84700611.0.2],Conns=[wye wye wye],kvs=[7.967 0.12 0.12],kvas=[5.000000000 5.000000000 5.000000000],Taps=[1,1.000000000,1.000000000],%loadloss=1.900000000,%noloadloss=0.600000000
new transformer.1321931 Phases=3,Windings=2,Buses=[BMT173268356.1.2.3 BBT94368185.1.2.3.0],Conns=[delta wye],kvs=[13.8 0.22],kvas=[75.000000000 75.000000000],Taps=[1,1.000000000],%loadloss=1.340000000,%noloadloss=0.340000000
new transformer.1322694 Phases=3,Windings=2,Buses=[BMT100957691.1.2.3 BBT94817011.1.2.3.0],Conns=[delta wye],kvs=[13.8 0.22],kvas=[45.000000000 45.000000000],Taps=[1,1.000000000],%loadloss=1.522000000,%noloadloss=0.377777000
new transformer.1322792 Phases=3,Windings=2,Buses=[BMT159476235.1.2.3 BBT94872563.1.2.3.0],Conns=[delta wye],kvs=[13.8 0.22],kvas=[150.000000000 150.000000000],Taps=[1,1.000000000],%loadloss=1.127000000,%noloadloss=0.280000000
new transformer.1346585 Phases=3,Windings=2,Buses=[BMT118364416.1.2.3 BBT112767895.1.2.3.0],Conns=[delta wye],kvs=[13.8 0.22],kvas=[150.000000000 150.000000000],Taps=[1,1.000000000],%loadloss=1.127000000,%noloadloss=0.280000000
new transformer.1348559 Phases=3,Windings=2,Buses=[BMT164022847.1.2.3 BBT114093933.1.2.3.0],Conns=[delta wye],kvs=[13.8 0.22],kvas=[75.000000000 75.000000000],Taps=[1,1.000000000],%loadloss=1.340000000,%noloadloss=0.340000000
new transformer.1368278 Phases=3,Windings=2,Buses=[BMT171262221.1.2.3 BBT129950109.1.2.3.0],Conns=[delta wye],kvs=[13.8 0.22],kvas=[75.000000000 75.000000000],Taps=[1,1.000000000],%loadloss=1.340000000,%noloadloss=0.340000000
new transformer.1390448 Phases=3,Windings=2,Buses=[BMT166129844.1.2.3 BBT148126460.1.2.3.0],Conns=[delta wye],kvs=[13.8 0.22],kvas=[150.000000000 150.000000000],Taps=[1,1.000000000],%loadloss=1.127000000,%noloadloss=0.280000000
new transformer.1396519 Phases=3,Windings=2,Buses=[BMT167917643.1.2.3 BBT149572514.1.2.3.0],Conns=[delta wye],kvs=[13.8 0.22],kvas=[45.000000000 45.000000000],Taps=[1,1.000000000],%loadloss=1.522000000,%noloadloss=0.377777000
new transformer.1396528 Phases=3,Windings=2,Buses=[BMT166654675.1.2.3 BBT149575078.1.2.3.0],Conns=[delta wye],kvs=[13.8 0.22],kvas=[45.000000000 45.000000000],Taps=[1,1.000000000],%loadloss=1.522000000,%noloadloss=0.377777000
new transformer.1402644 Phases=3,Windings=2,Buses=[BMT168251410.1.2.3 BBT151083347.1.2.3.0],Conns=[delta wye],kvs=[13.8 0.22],kvas=[150.000000000 150.000000000],Taps=[1,1.000000000],%loadloss=1.127000000,%noloadloss=0.280000000
new transformer.1429151 Phases=1,Windings=3,Buses=[BMT164378695.1 BBT157026957.1.0 BBT157026957.0.2],Conns=[wye wye wye],kvs=[7.967 0.12 0.12],kvas=[5.000000000 5.000000000 5.000000000],Taps=[1,1.000000000,1.000000000],%loadloss=1.900000000,%noloadloss=0.600000000
new transformer.1441288 Phases=3,Windings=2,Buses=[BMT164228099.1.2.3 BBT159446638.1.2.3.0],Conns=[delta wye],kvs=[13.8 0.22],kvas=[45.000000000 45.000000000],Taps=[1,1.000000000],%loadloss=1.522000000,%noloadloss=0.377777000
new transformer.1441440 Phases=3,Windings=2,Buses=[BMT159550022.1.2.3 BBT159474842.1.2.3.0],Conns=[delta wye],kvs=[13.8 0.22],kvas=[75.000000000 75.000000000],Taps=[1,1.000000000],%loadloss=1.340000000,%noloadloss=0.340000000
new transformer.1459447 Phases=3,Windings=2,Buses=[BMT173139933.1.2.3 BBT164225702.1.2.3.0],Conns=[delta wye],kvs=[13.8 0.22],kvas=[150.000000000 150.000000000],Taps=[1,1.000000000],%loadloss=1.127000000,%noloadloss=0.280000000
new transformer.1459456 Phases=3,Windings=2,Buses=[BMT164228102.1.2.3 BBT164228111.1.2.3.0],Conns=[delta wye],kvs=[13.8 0.22],kvas=[75.000000000 75.000000000],Taps=[1,1.000000000],%loadloss=1.340000000,%noloadloss=0.340000000
new transformer.1459916 Phases=1,Windings=3,Buses=[BMT171602961.2 BBT164376751.1.0 BBT164376751.0.2],Conns=[wye wye wye],kvs=[7.967 0.12 0.12],kvas=[10.000000000 10.000000000 10.000000000],Taps=[1,1.000000000,1.000000000],%loadloss=1.800000000,%noloadloss=0.450000000
new transformer.1477222 Phases=3,Windings=2,Buses=[BMT167645836.1.2.3 BBT167638366.1.2.3.0],Conns=[delta wye],kvs=[13.8 0.22],kvas=[45.000000000 45.000000000],Taps=[1,1.000000000],%loadloss=1.522000000,%noloadloss=0.377777000
new transformer.1489921 Phases=3,Windings=2,Buses=[BMT169913077.1.2.3 BBT169912930.1.2.3.0],Conns=[delta wye],kvs=[13.8 0.22],kvas=[75.000000000 75.000000000],Taps=[1,1.000000000],%loadloss=1.340000000,%noloadloss=0.340000000
new transformer.1496272 Phases=3,Windings=2,Buses=[BMT171262353.1.2.3 BBT171262358.1.2.3.0],Conns=[delta wye],kvs=[13.8 0.22],kvas=[150.000000000 150.000000000],Taps=[1,1.000000000],%loadloss=1.127000000,%noloadloss=0.280000000
new transformer.1266057 Phases=3,Windings=2,Buses=[BMT100948087.1.2.3 BBT68327226.1.2.3.0],Conns=[delta wye],kvs=[13.8 0.22],kvas=[75.000000000 75.000000000],Taps=[1,1.000000000],%loadloss=1.340000000,%noloadloss=0.340000000
new transformer.1310528 Phases=3,Windings=2,Buses=[BMT100954849.1.2.3 BBT89314766.1.2.3.0],Conns=[delta wye],kvs=[13.8 0.22],kvas=[45.000000000 45.000000000],Taps=[1,1.000000000],%loadloss=1.522000000,%noloadloss=0.377777000
new transformer.1338696 Phases=1,Windings=3,Buses=[BMT172300066.2 BBT107254940.1.0 BBT107254940.0.2],Conns=[wye wye wye],kvs=[7.967 0.12 0.12],kvas=[5.000000000 5.000000000 5.000000000],Taps=[1,1.000000000,1.000000000],%loadloss=1.900000000,%noloadloss=0.600000000
new transformer.1338738 Phases=1,Windings=3,Buses=[BMT157441420.1 BBT107297339.1.0 BBT107297339.0.2],Conns=[wye wye wye],kvs=[7.967 0.12 0.12],kvas=[5.000000000 5.000000000 5.000000000],Taps=[1,1.000000000,1.000000000],%loadloss=1.900000000,%noloadloss=0.600000000
new transformer.1361677 Phases=1,Windings=3,Buses=[BMT171262356.1 BBT124808945.1.0 BBT124808945.0.2],Conns=[wye wye wye],kvs=[7.967 0.12 0.12],kvas=[5.000000000 5.000000000 5.000000000],Taps=[1,1.000000000,1.000000000],%loadloss=1.900000000,%noloadloss=0.600000000
new transformer.1361978 Phases=3,Windings=2,Buses=[BMT125213265.1.2.3 BBT125207343.1.2.3.0],Conns=[delta wye],kvs=[13.8 0.22],kvas=[45.000000000 45.000000000],Taps=[1,1.000000000],%loadloss=1.522000000,%noloadloss=0.377777000
new transformer.1362650 Phases=3,Windings=2,Buses=[BMT171095636.1.2.3 BBT125731685.1.2.3.0],Conns=[delta wye],kvs=[13.8 0.22],kvas=[150.000000000 150.000000000],Taps=[1,1.000000000],%loadloss=1.127000000,%noloadloss=0.280000000
new transformer.1362692 Phases=3,Windings=2,Buses=[BMT170641609.1.2.3 BBT125744663.1.2.3.0],Conns=[delta wye],kvs=[13.8 0.22],kvas=[75.000000000 75.000000000],Taps=[1,1.000000000],%loadloss=1.340000000,%noloadloss=0.340000000
new transformer.1362720 Phases=3,Windings=2,Buses=[BMT158968684.1.2.3 BBT125770087.1.2.3.0],Conns=[delta wye],kvs=[13.8 0.22],kvas=[75.000000000 75.000000000],Taps=[1,1.000000000],%loadloss=1.340000000,%noloadloss=0.340000000
new transformer.1363063 Phases=3,Windings=2,Buses=[BMT166654677.1.2.3 BBT126216610.1.2.3.0],Conns=[delta wye],kvs=[13.8 0.22],kvas=[45.000000000 45.000000000],Taps=[1,1.000000000],%loadloss=1.522000000,%noloadloss=0.377777000
new transformer.1363539 Phases=3,Windings=2,Buses=[BMT159365557.1.2.3 BBT126527102.1.2.3.0],Conns=[delta wye],kvs=[13.8 0.22],kvas=[45.000000000 45.000000000],Taps=[1,1.000000000],%loadloss=1.522000000,%noloadloss=0.377777000
new transformer.1363665 Phases=3,Windings=2,Buses=[BMT164022846.1.2.3 BBT126625200.1.2.3.0],Conns=[delta wye],kvs=[13.8 0.22],kvas=[45.000000000 45.000000000],Taps=[1,1.000000000],%loadloss=1.522000000,%noloadloss=0.377777000
new transformer.1364092 Phases=3,Windings=2,Buses=[BMT136903272.1.2.3 BBT127051787.1.2.3.0],Conns=[delta wye],kvs=[13.8 0.22],kvas=[45.000000000 45.000000000],Taps=[1,1.000000000],%loadloss=1.522000000,%noloadloss=0.377777000
new transformer.1410832 Phases=3,Windings=2,Buses=[BMT156119584.1.2.3 BBT153027538.1.2.3.0],Conns=[delta wye],kvs=[13.8 0.22],kvas=[75.000000000 75.000000000],Taps=[1,1.000000000],%loadloss=1.340000000,%noloadloss=0.340000000
new transformer.1434160 Phases=3,Windings=2,Buses=[BMT170651270.1.2.3 BBT158025947.1.2.3.0],Conns=[delta wye],kvs=[13.8 0.22],kvas=[45.000000000 45.000000000],Taps=[1,1.000000000],%loadloss=1.522000000,%noloadloss=0.377777000
new transformer.1444182 Phases=1,Windings=3,Buses=[BMT166566482.2 BBT160081806.1.0 BBT160081806.0.2],Conns=[wye wye wye],kvs=[7.967 0.12 0.12],kvas=[10.000000000 10.000000000 10.000000000],Taps=[1,1.000000000,1.000000000],%loadloss=1.800000000,%noloadloss=0.450000000
new transformer.1449561 Phases=3,Windings=2,Buses=[BMT164585253.1.2.3 BBT161544715.1.2.3.0],Conns=[delta wye],kvs=[13.8 0.22],kvas=[150.000000000 150.000000000],Taps=[1,1.000000000],%loadloss=1.127000000,%noloadloss=0.280000000
new transformer.1460113 Phases=3,Windings=2,Buses=[BMT165272148.1.2.3 BBT164407247.1.2.3.0],Conns=[delta wye],kvs=[13.8 0.22],kvas=[75.000000000 75.000000000],Taps=[1,1.000000000],%loadloss=1.340000000,%noloadloss=0.340000000
new transformer.1460116 Phases=3,Windings=2,Buses=[BMT165272147.1.2.3 BBT164407523.1.2.3.0],Conns=[delta wye],kvs=[13.8 0.22],kvas=[75.000000000 75.000000000],Taps=[1,1.000000000],%loadloss=1.340000000,%noloadloss=0.340000000
new transformer.1460117 Phases=3,Windings=2,Buses=[BMT165272146.1.2.3 BBT164407574.1.2.3.0],Conns=[delta wye],kvs=[13.8 0.22],kvas=[75.000000000 75.000000000],Taps=[1,1.000000000],%loadloss=1.340000000,%noloadloss=0.340000000
new transformer.1471332 Phases=3,Windings=2,Buses=[BMT166637393.1.2.3 BBT166637399.1.2.3.0],Conns=[delta wye],kvs=[13.8 0.22],kvas=[45.000000000 45.000000000],Taps=[1,1.000000000],%loadloss=1.522000000,%noloadloss=0.377777000
new transformer.1471455 Phases=3,Windings=2,Buses=[BMT166654571.1.2.3 BBT166654497.1.2.3.0],Conns=[delta wye],kvs=[13.8 0.22],kvas=[75.000000000 75.000000000],Taps=[1,1.000000000],%loadloss=1.340000000,%noloadloss=0.340000000
new transformer.1471678 Phases=3,Windings=2,Buses=[BMT169483151.1.2.3 BBT166688191.1.2.3.0],Conns=[delta wye],kvs=[13.8 0.22],kvas=[150.000000000 150.000000000],Taps=[1,1.000000000],%loadloss=1.127000000,%noloadloss=0.280000000
new transformer.1502106 Phases=3,Windings=2,Buses=[BMT173268354.1.2.3 BBT172443804.1.2.3.0],Conns=[delta wye],kvs=[13.8 0.22],kvas=[75.000000000 75.000000000],Taps=[1,1.000000000],%loadloss=1.340000000,%noloadloss=0.340000000
new transformer.1502111 Phases=3,Windings=2,Buses=[BMT172444978.1.2.3 BBT172444611.1.2.3.0],Conns=[delta wye],kvs=[13.8 0.22],kvas=[75.000000000 75.000000000],Taps=[1,1.000000000],%loadloss=1.340000000,%noloadloss=0.340000000
new transformer.521929 Phases=3,Windings=2,Buses=[BMT100951146.1.2.3 BBT1982528.1.2.3.0],Conns=[delta wye],kvs=[13.8 0.22],kvas=[100.000000000 100.000000000],Taps=[1,1.000000000],%loadloss=1.218000000,%noloadloss=0.335000000
new transformer.521936 Phases=3,Windings=2,Buses=[BMT170651267.1.2.3 BBT1982605.1.2.3.0],Conns=[delta wye],kvs=[13.8 0.22],kvas=[30.000000000 30.000000000],Taps=[1,1.000000000],%loadloss=1.667000000,%noloadloss=0.433333000
new transformer.1039306 Phases=3,Windings=2,Buses=[BMT168728288.1.2.3 BBT6775134.1.2.3.0],Conns=[delta wye],kvs=[13.8 0.22],kvas=[75.000000000 75.000000000],Taps=[1,1.000000000],%loadloss=1.340000000,%noloadloss=0.340000000
new transformer.1161239 Phases=3,Windings=2,Buses=[BMT100957719.1.2.3 BBT34995158.1.2.3.0],Conns=[delta wye],kvs=[13.8 0.22],kvas=[100.000000000 100.000000000],Taps=[1,1.000000000],%loadloss=1.218000000,%noloadloss=0.335000000
new transformer.1304655 Phases=3,Windings=2,Buses=[BMT169483154.1.2.3 BBT82342262.1.2.3.0],Conns=[delta wye],kvs=[13.8 0.22],kvas=[45.000000000 45.000000000],Taps=[1,1.000000000],%loadloss=1.522000000,%noloadloss=0.377777000
new transformer.1306230 Phases=1,Windings=3,Buses=[BMT100944223.1 BBT83909002.1.0 BBT83909002.0.2],Conns=[wye wye wye],kvs=[7.967 0.12 0.12],kvas=[5.000000000 5.000000000 5.000000000],Taps=[1,1.000000000,1.000000000],%loadloss=1.900000000,%noloadloss=0.600000000
new transformer.1354943 Phases=3,Windings=2,Buses=[BMT161151167.1.2.3 BBT119191347.1.2.3.0],Conns=[delta wye],kvs=[13.8 0.22],kvas=[75.000000000 75.000000000],Taps=[1,1.000000000],%loadloss=1.340000000,%noloadloss=0.340000000
new transformer.1355699 Phases=3,Windings=2,Buses=[BMT156264041.1.2.3 BBT119736332.1.2.3.0],Conns=[delta wye],kvs=[13.8 0.22],kvas=[45.000000000 45.000000000],Taps=[1,1.000000000],%loadloss=1.522000000,%noloadloss=0.377777000
new transformer.1357239 Phases=3,Windings=2,Buses=[BMT157084474.1.2.3 BBT121149534.1.2.3.0],Conns=[delta wye],kvs=[13.8 0.22],kvas=[75.000000000 75.000000000],Taps=[1,1.000000000],%loadloss=1.340000000,%noloadloss=0.340000000
new transformer.1357722 Phases=3,Windings=2,Buses=[BMT162775642.1.2.3 BBT121392938.1.2.3.0],Conns=[delta wye],kvs=[13.8 0.22],kvas=[75.000000000 75.000000000],Taps=[1,1.000000000],%loadloss=1.340000000,%noloadloss=0.340000000
new transformer.1408243 Phases=3,Windings=2,Buses=[BMT152520234.1.2.3 BBT152436700.1.2.3.0],Conns=[delta wye],kvs=[13.8 0.22],kvas=[45.000000000 45.000000000],Taps=[1,1.000000000],%loadloss=1.522000000,%noloadloss=0.377777000
new transformer.1430885 Phases=3,Windings=2,Buses=[BMT157407073.1.2.3 BBT157406957.1.2.3.0],Conns=[delta wye],kvs=[13.8 0.22],kvas=[45.000000000 45.000000000],Taps=[1,1.000000000],%loadloss=1.522000000,%noloadloss=0.377777000
new transformer.1436976 Phases=3,Windings=2,Buses=[BMT158549999.1.2.3 BBT158548545.1.2.3.0],Conns=[delta wye],kvs=[13.8 0.22],kvas=[150.000000000 150.000000000],Taps=[1,1.000000000],%loadloss=1.127000000,%noloadloss=0.280000000
new transformer.1442521 Phases=3,Windings=2,Buses=[BMT172876143.1.2.3 BBT159678723.1.2.3.0],Conns=[delta wye],kvs=[13.8 0.22],kvas=[150.000000000 150.000000000],Taps=[1,1.000000000],%loadloss=1.127000000,%noloadloss=0.280000000
new transformer.1450699 Phases=1,Windings=3,Buses=[BMT161927213.2 BBT161812061.1.0 BBT161812061.0.2],Conns=[wye wye wye],kvs=[7.967 0.12 0.12],kvas=[15.000000000 15.000000000 15.000000000],Taps=[1,1.000000000,1.000000000],%loadloss=1.600000000,%noloadloss=0.400000000
new transformer.1494439 Phases=3,Windings=2,Buses=[BMT170853640.1.2.3 BBT170853549.1.2.3.0],Conns=[delta wye],kvs=[13.8 0.22],kvas=[45.000000000 45.000000000],Taps=[1,1.000000000],%loadloss=1.522000000,%noloadloss=0.377777000
new transformer.1494443 Phases=3,Windings=2,Buses=[BMT171262217.1.2.3 BBT170854239.1.2.3.0],Conns=[delta wye],kvs=[13.8 0.22],kvas=[75.000000000 75.000000000],Taps=[1,1.000000000],%loadloss=1.340000000,%noloadloss=0.340000000
new transformer.1501062 Phases=3,Windings=2,Buses=[BMT173134739.1.2.3 BBT172216974.1.2.3.0],Conns=[delta wye],kvs=[13.8 0.22],kvas=[45.000000000 45.000000000],Taps=[1,1.000000000],%loadloss=1.522000000,%noloadloss=0.377777000
new transformer.1501211 Phases=3,Windings=2,Buses=[BMT172309958.1.2.3 BBT172250417.1.2.3.0],Conns=[delta wye],kvs=[13.8 0.22],kvas=[150.000000000 150.000000000],Taps=[1,1.000000000],%loadloss=1.127000000,%noloadloss=0.280000000
new transformer.1501212 Phases=3,Windings=2,Buses=[BMT172309959.1.2.3 BBT172250721.1.2.3.0],Conns=[delta wye],kvs=[13.8 0.22],kvas=[150.000000000 150.000000000],Taps=[1,1.000000000],%loadloss=1.127000000,%noloadloss=0.280000000
new transformer.1501396 Phases=3,Windings=2,Buses=[BMT172292233.1.2.3 BBT172289684.1.2.3.0],Conns=[delta wye],kvs=[13.8 0.22],kvas=[45.000000000 45.000000000],Taps=[1,1.000000000],%loadloss=1.522000000,%noloadloss=0.377777000
new transformer.521138 Phases=3,Windings=2,Buses=[BMT156119641.1.2.3 BBT1972721.1.2.3.0],Conns=[delta wye],kvs=[13.8 0.22],kvas=[75.000000000 75.000000000],Taps=[1,1.000000000],%loadloss=1.340000000,%noloadloss=0.340000000
new transformer.521152 Phases=3,Windings=2,Buses=[BMT168280388.1.2.3 BBT1972931.1.2.3.0],Conns=[delta wye],kvs=[13.8 0.22],kvas=[45.000000000 45.000000000],Taps=[1,1.000000000],%loadloss=1.522000000,%noloadloss=0.377777000
new transformer.521159 Phases=3,Windings=2,Buses=[BMT100952756.1.2 BBT1973043.1.2.3.0],Conns=[delta wye],kvs=[13.8 0.22],kvas=[25.000000000 25.000000000],Taps=[1,1.000000000],%loadloss=1.667000000,%noloadloss=0.520000000
new transformer.521166 Phases=3,Windings=2,Buses=[BMT167584969.1.2.3 BBT1973113.1.2.3.0],Conns=[delta wye],kvs=[13.8 0.22],kvas=[45.000000000 45.000000000],Taps=[1,1.000000000],%loadloss=1.522000000,%noloadloss=0.377777000
new transformer.521173 Phases=3,Windings=2,Buses=[BMT168280384.1.2.3 BBT1973204.1.2.3.0],Conns=[delta wye],kvs=[13.8 0.22],kvas=[45.000000000 45.000000000],Taps=[1,1.000000000],%loadloss=1.522000000,%noloadloss=0.377777000
new transformer.521180 Phases=3,Windings=2,Buses=[BMT158549995.1.2.3 BBT1973260.1.2.3.0],Conns=[delta wye],kvs=[13.8 0.22],kvas=[75.000000000 75.000000000],Taps=[1,1.000000000],%loadloss=1.340000000,%noloadloss=0.340000000
new transformer.521187 Phases=3,Windings=2,Buses=[BMT171095628.1.2.3 BBT1973414.1.2.3.0],Conns=[delta wye],kvs=[13.8 0.22],kvas=[75.000000000 75.000000000],Taps=[1,1.000000000],%loadloss=1.340000000,%noloadloss=0.340000000
new transformer.1248277 Phases=3,Windings=2,Buses=[BMT171222105.1.2.3 BBT59578213.1.2.3.0],Conns=[delta wye],kvs=[13.8 0.22],kvas=[75.000000000 75.000000000],Taps=[1,1.000000000],%loadloss=1.340000000,%noloadloss=0.340000000
new transformer.1342469 Phases=3,Windings=2,Buses=[BMT168728289.1.2.3 BBT109848272.1.2.3.0],Conns=[delta wye],kvs=[13.8 0.22],kvas=[75.000000000 75.000000000],Taps=[1,1.000000000],%loadloss=1.340000000,%noloadloss=0.340000000
new transformer.1342476 Phases=3,Windings=2,Buses=[BMT168048645.1.2.3 BBT109849714.1.2.3.0],Conns=[delta wye],kvs=[13.8 0.22],kvas=[45.000000000 45.000000000],Taps=[1,1.000000000],%loadloss=1.522000000,%noloadloss=0.377777000
new transformer.1343099 Phases=3,Windings=2,Buses=[BMT110390583.1.2.3 BBT110390142.1.2.3.0],Conns=[delta wye],kvs=[13.8 0.22],kvas=[75.000000000 75.000000000],Taps=[1,1.000000000],%loadloss=1.340000000,%noloadloss=0.340000000
new transformer.1344611 Phases=3,Windings=2,Buses=[BMT161029632.1.2.3 BBT111536399.1.2.3.0],Conns=[delta wye],kvs=[13.8 0.22],kvas=[45.000000000 45.000000000],Taps=[1,1.000000000],%loadloss=1.522000000,%noloadloss=0.377777000
new transformer.1344632 Phases=3,Windings=2,Buses=[BMT164022850.1.2.3 BBT111545520.1.2.3.0],Conns=[delta wye],kvs=[13.8 0.22],kvas=[30.000000000 30.000000000],Taps=[1,1.000000000],%loadloss=1.667000000,%noloadloss=0.433333000
new transformer.1344856 Phases=3,Windings=2,Buses=[BMT160993422.1.2.3 BBT111712078.1.2.3.0],Conns=[delta wye],kvs=[13.8 0.22],kvas=[75.000000000 75.000000000],Taps=[1,1.000000000],%loadloss=1.340000000,%noloadloss=0.340000000
new transformer.1371715 Phases=3,Windings=2,Buses=[BMT132302060.1.2.3 BBT132302095.1.2.3.0],Conns=[delta wye],kvs=[13.8 0.22],kvas=[45.000000000 45.000000000],Taps=[1,1.000000000],%loadloss=1.522000000,%noloadloss=0.377777000
new transformer.1391615 Phases=1,Windings=3,Buses=[BMT148430016.1 BBT148429938.1.0 BBT148429938.0.2],Conns=[wye wye wye],kvs=[7.967 0.12 0.12],kvas=[5.000000000 5.000000000 5.000000000],Taps=[1,1.000000000,1.000000000],%loadloss=1.900000000,%noloadloss=0.600000000
new transformer.1406315 Phases=3,Windings=2,Buses=[BMT170561381.1.2.3 BBT151934777.1.2.3.0],Conns=[delta wye],kvs=[13.8 0.22],kvas=[45.000000000 45.000000000],Taps=[1,1.000000000],%loadloss=1.522000000,%noloadloss=0.377777000
new transformer.1406327 Phases=3,Windings=2,Buses=[BMT151936942.1.2.3 BBT151936451.1.2.3.0],Conns=[delta wye],kvs=[13.8 0.22],kvas=[45.000000000 45.000000000],Taps=[1,1.000000000],%loadloss=1.522000000,%noloadloss=0.377777000
new transformer.1438952 Phases=3,Windings=2,Buses=[BMT158946688.1.2.3 BBT158946690.1.2.3.0],Conns=[delta wye],kvs=[13.8 0.22],kvas=[250.000000000 250.000000000],Taps=[1,1.000000000],%loadloss=0.990000000,%noloadloss=0.280000000
new transformer.1439595 Phases=3,Windings=2,Buses=[BMT165145617.1.2.3 BBT159090875.1.2.3.0],Conns=[delta wye],kvs=[13.8 0.22],kvas=[75.000000000 75.000000000],Taps=[1,1.000000000],%loadloss=1.340000000,%noloadloss=0.340000000
new transformer.1479509 Phases=3,Windings=2,Buses=[BMT168048646.1.2.3 BBT168048647.1.2.3.0],Conns=[delta wye],kvs=[13.8 0.22],kvas=[250.000000000 250.000000000],Taps=[1,1.000000000],%loadloss=0.990000000,%noloadloss=0.280000000
new transformer.1492967 Phases=3,Windings=2,Buses=[BMT170563156.1.2.3 BBT170561108.1.2.3.0],Conns=[delta wye],kvs=[13.8 0.22],kvas=[45.000000000 45.000000000],Taps=[1,1.000000000],%loadloss=1.522000000,%noloadloss=0.377777000
new transformer.1504791 Phases=1,Windings=3,Buses=[BMT173097179.1 BBT173093146.1.0 BBT173093146.0.2],Conns=[wye wye wye],kvs=[7.967 0.12 0.12],kvas=[10.000000000 10.000000000 10.000000000],Taps=[1,1.000000000,1.000000000],%loadloss=1.800000000,%noloadloss=0.450000000
new transformer.522720 Phases=3,Windings=2,Buses=[BMT170769342.1.2.3 BBT1991712.1.2.3.0],Conns=[delta wye],kvs=[13.8 0.22],kvas=[150.000000000 150.000000000],Taps=[1,1.000000000],%loadloss=1.127000000,%noloadloss=0.280000000
new transformer.522734 Phases=3,Windings=2,Buses=[BMT168048640.1.2.3 BBT1991859.1.2.3.0],Conns=[delta wye],kvs=[13.8 0.22],kvas=[75.000000000 75.000000000],Taps=[1,1.000000000],%loadloss=1.340000000,%noloadloss=0.340000000
new transformer.522741 Phases=3,Windings=2,Buses=[BMT173198925.1.2.3 BBT1991901.1.2.3.0],Conns=[delta wye],kvs=[13.8 0.22],kvas=[30.000000000 30.000000000],Taps=[1,1.000000000],%loadloss=1.667000000,%noloadloss=0.433333000
new transformer.522748 Phases=3,Windings=2,Buses=[BMT167904648.1.2.3 BBT1991915.1.2.3.0],Conns=[delta wye],kvs=[13.8 0.22],kvas=[75.000000000 75.000000000],Taps=[1,1.000000000],%loadloss=1.340000000,%noloadloss=0.340000000
new transformer.522755 Phases=3,Windings=2,Buses=[BMT152618681.1.2.3 BBT1992048.1.2.3.0],Conns=[delta wye],kvs=[13.8 0.22],kvas=[45.000000000 45.000000000],Taps=[1,1.000000000],%loadloss=1.522000000,%noloadloss=0.377777000
new transformer.522762 Phases=3,Windings=2,Buses=[BMT100949802.1.2.3 BBT1992181.1.2.3.0],Conns=[delta wye],kvs=[13.8 0.22],kvas=[75.000000000 75.000000000],Taps=[1,1.000000000],%loadloss=1.340000000,%noloadloss=0.340000000
new transformer.522776 Phases=3,Windings=2,Buses=[BMT148811353.1.2.3 BBT1992391.1.2.3.0],Conns=[delta wye],kvs=[13.8 0.22],kvas=[75.000000000 75.000000000],Taps=[1,1.000000000],%loadloss=1.340000000,%noloadloss=0.340000000