new line.CTR197205 bus1=BMT100954597.1.2.3,bus2=BMT100955262.1.2.3,Phases=3,LineCode=tieSwitch,Length=0.001,Units=km,switch=T !numEQ 140448
new line.CTR320195 bus1=BMT100952728.1.2.3,bus2=BMT100952749.1.2.3,Phases=3,LineCode=tieSwitch,Length=0.001,Units=km,switch=T !numEQ 109679
new line.CTR320440 bus1=BMT101011052.1.2.3,bus2=BMT101012347.1.2.3,Phases=3,LineCode=tieSwitch,Length=0.001,Units=km,switch=T !numEQ 112972
new line.CTR428142 bus1=BMT100946547.1.2.3,bus2=BMT159915030.1.2.3,Phases=3,LineCode=tieSwitch,Length=0.001,Units=km,switch=T !numEQ 48370
new line.CTR428149 bus1=BMT100945777.1.2.3,bus2=BMT100945784.1.2.3,Phases=3,LineCode=tieSwitch,Length=0.001,Units=km,switch=T !numEQ 48372
new line.CTR428156 bus1=BMT100945833.1.2.3,bus2=BMT172876136.1.2.3,Phases=3,LineCode=tieSwitch,Length=0.001,Units=km,switch=T !numEQ 48375
new line.CTR428163 bus1=BMT100945868.1.2.3,bus2=BMT115029497.1.2.3,Phases=3,LineCode=tieSwitch,Length=0.001,Units=km,switch=T !numEQ 48377
new line.CTR428191 bus1=BMT100946183.1.2.3,bus2=BMT166129831.1.2.3,Phases=3,LineCode=tieSwitch,Length=0.001,Units=km,switch=T !numEQ 48386
new line.CTR428205 bus1=BMT100943572.1.2.3,bus2=BMT151936941.1.2.3,Phases=3,LineCode=tieSwitch,Length=0.001,Units=km,switch=T !numEQ 48392
new line.CTR428212 bus1=BMT115019921.1.2.3,bus2=BMT149065968.1.2.3,Phases=3,LineCode=tieSwitch,Length=0.001,Units=km,switch=T !numEQ 48396
new line.CTR428219 bus1=BMT100943698.1.2.3,bus2=BMT165360953.1.2.3,Phases=3,LineCode=tieSwitch,Length=0.001,Units=km,switch=T !numEQ 48398
new line.CTR428240 bus1=BMT100943628.1.2.3,bus2=BMT168251409.1.2.3,Phases=3,LineCode=tieSwitch,Length=0.001,Units=km,switch=T !numEQ 48404
new line.CTR428254 bus1=BMT100943677.1.2.3,bus2=BMT157805298.1.2.3,Phases=3,LineCode=tieSwitch,Length=0.001,Units=km,switch=T !numEQ 48406
new line.CTR428261 bus1=BMT161583410.1.2.3,bus2=BMT3340507.1.2.3,Phases=3,LineCode=tieSwitch,Length=0.001,Units=km,switch=T !numEQ 48407
open line.CTR428261 term=1
new line.CTR428268 bus1=BMT100949718.1.2.3,bus2=BMT100949725.1.2.3,Phases=3,LineCode=tieSwitch,Length=0.001,Units=km,switch=T !numEQ 48410
new line.CTR428289 bus1=BMT100943474.1.2.3,bus2=BMT166566477.1.2.3,Phases=3,LineCode=tieSwitch,Length=0.001,Units=km,switch=T !numEQ 48418
new line.CTR428380 bus1=BMT101011367.1.2.3,bus2=BMT104848816.1.2.3,Phases=3,LineCode=tieSwitch,Length=0.001,Units=km,switch=T !numEQ 48447
new line.CTR428401 bus1=BMT101011528.1.2.3,bus2=BMT153464047.1.2.3,Phases=3,LineCode=tieSwitch,Length=0.001,Units=km,switch=T !numEQ 48452
new line.CTR428408 bus1=BMT100944391.1.2.3,bus2=BMT158868584.1.2.3,Phases=3,LineCode=tieSwitch,Length=0.001,Units=km,switch=T !numEQ 48453
new line.CTR428415 bus1=BMT156119600.1.2.3,bus2=BMT169913067.1.2.3,Phases=3,LineCode=tieSwitch,Length=0.001,Units=km,switch=T !numEQ 48494
new line.CTR428436 bus1=BMT101011766.3,bus2=BMT148877902.3,Phases=1,LineCode=tieSwitch1,Length=0.001,Units=km,switch=T !numEQ 48459
new line.CTR428457 bus1=BMT100946309.1.2.3,bus2=BMT100946330.1.2.3,Phases=3,LineCode=tieSwitch,Length=0.001,Units=km,switch=T !numEQ 48466
new line.CTR428464 bus1=BMT100946323.1.2.3,bus2=BMT100947373.1.2.3,Phases=3,LineCode=tieSwitch,Length=0.001,Units=km,switch=T !numEQ 48468
new line.CTR428471 bus1=BMT172309474.1.2.3,bus2=BMT100944335.1.2.3,Phases=3,LineCode=tieSwitch,Length=0.001,Units=km,switch=T !numEQ 48472
open line.CTR428471 term=1
new line.CTR428478 bus1=BMT100944202.1.2.3,bus2=BMT157084471.1.2.3,Phases=3,LineCode=tieSwitch,Length=0.001,Units=km,switch=T !numEQ 48474
new line.CTR428485 bus1=BMT100945056.1.2.3,bus2=BMT165090239.1.2.3,Phases=3,LineCode=tieSwitch,Length=0.001,Units=km,switch=T !numEQ 48477
new line.CTR428492 bus1=BMT159911131.1.2.3,bus2=BMT3328803.1.2.3,Phases=3,LineCode=tieSwitch,Length=0.001,Units=km,switch=T !numEQ 48479
open line.CTR428492 term=1
new line.CTR428499 bus1=BMT159909500.1.2.3,bus2=BMT100946582.1.2.3,Phases=3,LineCode=tieSwitch,Length=0.001,Units=km,switch=T !numEQ 48481
open line.CTR428499 term=1
new line.CTR428506 bus1=BMT100948374.1.2.3,bus2=BMT125213223.1.2.3,Phases=3,LineCode=tieSwitch,Length=0.001,Units=km,switch=T !numEQ 48483
new line.CTR428513 bus1=BMT100946834.1.2.3,bus2=BMT129949290.1.2.3,Phases=3,LineCode=tieSwitch,Length=0.001,Units=km,switch=T !numEQ 48486
new line.CTR428520 bus1=BMT161886332.1.2.3,bus2=BMT161888540.1.2.3,Phases=3,LineCode=tieSwitch,Length=0.001,Units=km,switch=T !numEQ 48488
new line.CTR428527 bus1=BMT167983465.1.2.3,bus2=BMT167983597.1.2.3,Phases=3,LineCode=tieSwitch,Length=0.001,Units=km,switch=T !numEQ 48490
new line.CTR428534 bus1=BMT165266586.1.2.3,bus2=BMT100946813.1.2.3,Phases=3,LineCode=tieSwitch,Length=0.001,Units=km,switch=T !numEQ 48492
open line.CTR428534 term=1
new line.CTR428548 bus1=BMT100948339.1.2.3,bus2=BMT106818308.1.2.3,Phases=3,LineCode=tieSwitch,Length=0.001,Units=km,switch=T !numEQ 48496
new line.CTR428555 bus1=BMT100949186.1.2.3,bus2=BMT166199892.1.2.3,Phases=3,LineCode=tieSwitch,Length=0.001,Units=km,switch=T !numEQ 48497
new line.CTR428562 bus1=BMT100944132.1.2.3,bus2=BMT158401109.1.2.3,Phases=3,LineCode=tieSwitch,Length=0.001,Units=km,switch=T !numEQ 48501
new line.CTR428576 bus1=BMT156119564.1.2.3,bus2=BMT156119565.1.2.3,Phases=3,LineCode=tieSwitch,Length=0.001,Units=km,switch=T !numEQ 48505
new line.CTR428583 bus1=BMT156119589.1.2.3,bus2=BMT156119626.1.2.3,Phases=3,LineCode=tieSwitch,Length=0.001,Units=km,switch=T !numEQ 48507
new line.CTR428590 bus1=BMT100944902.1.2.3,bus2=BMT148811350.1.2.3,Phases=3,LineCode=tieSwitch,Length=0.001,Units=km,switch=T !numEQ 48510
new line.CTR428625 bus1=BMT100961254.1.2.3,bus2=BMT2765457.1.2.3,Phases=3,LineCode=tieSwitch,Length=0.001,Units=km,switch=T !numEQ 48522
open line.CTR428625 term=1
new line.CTR428632 bus1=BMT166566484.1.2.3,bus2=BMT3530277.1.2.3,Phases=3,LineCode=tieSwitch,Length=0.001,Units=km,switch=T !numEQ 48524
open line.CTR428632 term=1
new line.CTR428646 bus1=BMT100961317.1.2.3,bus2=BMT100961338.1.2.3,Phases=3,LineCode=tieSwitch,Length=0.001,Units=km,switch=T !numEQ 48528
new line.CTR428737 bus1=BMT100961401.1.2.3,bus2=BMT100963018.1.2.3,Phases=3,LineCode=tieSwitch,Length=0.001,Units=km,switch=T !numEQ 48554
new line.CTR428744 bus1=BMT100961429.1.2.3,bus2=BMT159855005.1.2.3,Phases=3,LineCode=tieSwitch,Length=0.001,Units=km,switch=T !numEQ 48556
new line.CTR428751 bus1=BMT149451371.1.2.3,bus2=BMT101010695.1.2.3,Phases=3,LineCode=tieSwitch,Length=0.001,Units=km,switch=T !numEQ 48560
open line.CTR428751 term=1
new line.CTR428772 bus1=BMT163977433.1.2.3,bus2=BMT165266585.1.2.3,Phases=3,LineCode=tieSwitch,Length=0.001,Units=km,switch=T !numEQ 48568
new line.CTR429647 bus1=BMT100954450.1.2.3,bus2=BMT100954457.1.2.3,Phases=3,LineCode=tieSwitch,Length=0.001,Units=km,switch=T !numEQ 165890
new line.CTR430319 bus1=BMT100944258.1.2.3,bus2=BMT100944832.1.2.3,Phases=3,LineCode=tieSwitch,Length=0.001,Units=km,switch=T !numEQ 48686
new line.CTR142927 bus1=BMT100957180.1.2.3,bus2=BMT168728283.1.2.3,Phases=3,LineCode=tieSwitch,Length=0.001,Units=km,switch=T !numEQ 121923
new line.CTR143165 bus1=BMT100954912.1.2.3,bus2=BMT100954947.1.2.3,Phases=3,LineCode=tieSwitch,Length=0.001,Units=km,switch=T !numEQ 120208
new line.CTR206536 bus1=BMT100951706.1.2.3,bus2=BMT100951720.1.2.3,Phases=3,LineCode=tieSwitch,Length=0.001,Units=km,switch=T !numEQ 164478
new line.CTR231820 bus1=BMT100952315.1.2.3,bus2=BMT100952434.1.2.3,Phases=3,LineCode=tieSwitch,Length=0.001,Units=km,switch=T !numEQ 51237
new line.CTR231834 bus1=BMT100952497.1.2.3,bus2=BMT100952518.1.2.3,Phases=3,LineCode=tieSwitch,Length=0.001,Units=km,switch=T !numEQ 51248
new line.CTR231848 bus1=BMT100952329.1.2.3,bus2=BMT156264038.1.2.3,Phases=3,LineCode=tieSwitch,Length=0.001,Units=km,switch=T !numEQ 51253
new line.CTR426938 bus1=BMT100961163.1.2.3,bus2=BMT122788360.1.2.3,Phases=3,LineCode=tieSwitch,Length=0.001,Units=km,switch=T !numEQ 48001
new line.CTR426959 bus1=BMT100958111.1.2.3,bus2=BMT161862992.1.2.3,Phases=3,LineCode=tieSwitch,Length=0.001,Units=km,switch=T !numEQ 48004
new line.CTR426966 bus1=BMT100958167.1.2.3,bus2=BMT158454008.1.2.3,Phases=3,LineCode=tieSwitch,Length=0.001,Units=km,switch=T !numEQ 48006
new line.CTR426973 bus1=BMT100960967.1.2.3,bus2=BMT150341225.1.2.3,Phases=3,LineCode=tieSwitch,Length=0.001,Units=km,switch=T !numEQ 48008
new line.CTR426980 bus1=BMT100958062.1.2.3,bus2=BMT173267494.1.2.3,Phases=3,LineCode=tieSwitch,Length=0.001,Units=km,switch=T !numEQ 48010
new line.CTR427001 bus1=BMT100957089.1.2.3,bus2=BMT100957096.1.2.3,Phases=3,LineCode=tieSwitch,Length=0.001,Units=km,switch=T !numEQ 48017
new line.CTR427008 bus1=BMT161151170.1.2.3,bus2=BMT3316756.1.2.3,Phases=3,LineCode=tieSwitch,Length=0.001,Units=km,switch=T !numEQ 48019
open line.CTR427008 term=1
new line.CTR427015 bus1=BMT100957075.1.2.3,bus2=BMT100957551.1.2.3,Phases=3,LineCode=tieSwitch,Length=0.001,Units=km,switch=T !numEQ 48021
new line.CTR427022 bus1=BMT100957026.1.2.3,bus2=BMT100957873.1.2.3,Phases=3,LineCode=tieSwitch,Length=0.001,Units=km,switch=T !numEQ 48024
new line.CTR427029 bus1=BMT100956907.1.2.3,bus2=BMT100956914.1.2.3,Phases=3,LineCode=tieSwitch,Length=0.001,Units=km,switch=T !numEQ 48026
new line.CTR427043 bus1=BMT100957810.1.2.3,bus2=BMT150341219.1.2.3,Phases=3,LineCode=tieSwitch,Length=0.001,Units=km,switch=T !numEQ 48033
new line.CTR427274 bus1=BMT100953666.1.2.3,bus2=BMT151253304.1.2.3,Phases=3,LineCode=tieSwitch,Length=0.001,Units=km,switch=T !numEQ 48103
new line.CTR427281 bus1=BMT100957957.1.2.3,bus2=BMT100957964.1.2.3,Phases=3,LineCode=tieSwitch,Length=0.001,Units=km,switch=T !numEQ 48105
new line.CTR427288 bus1=BMT100957453.1.2.3,bus2=BMT158968682.1.2.3,Phases=3,LineCode=tieSwitch,Length=0.001,Units=km,switch=T !numEQ 48107
new line.CTR427295 bus1=BMT100957145.1.2.3,bus2=BMT118364409.1.2.3,Phases=3,LineCode=tieSwitch,Length=0.001,Units=km,switch=T !numEQ 48109
new line.CTR427316 bus1=BMT100944363.1.2.3,bus2=BMT148316166.1.2.3,Phases=3,LineCode=tieSwitch,Length=0.001,Units=km,switch=T !numEQ 277904
new line.CTR427344 bus1=BMT100956928.1.2.3,bus2=BMT100956935.1.2.3,Phases=3,LineCode=tieSwitch,Length=0.001,Units=km,switch=T !numEQ 48125
new line.CTR427589 bus1=BMT173216040.1.2.3,bus2=BMT2765352.1.2.3,Phases=3,LineCode=tieSwitch,Length=0.001,Units=km,switch=T !numEQ 48190
open line.CTR427589 term=1
new line.CTR427638 bus1=BMT100943523.1.2.3,bus2=BMT167975867.1.2.3,Phases=3,LineCode=tieSwitch,Length=0.001,Units=km,switch=T !numEQ 48207
new line.CTR427652 bus1=BMT171602962.1.2.3,bus2=BMT100954359.1.2.3,Phases=3,LineCode=tieSwitch,Length=0.001,Units=km,switch=T !numEQ 276037
new line.CTR427680 bus1=BMT100954576.1.2.3,bus2=BMT100955570.1.2.3,Phases=3,LineCode=tieSwitch,Length=0.001,Units=km,switch=T !numEQ 48223
new line.CTR427694 bus1=BMT100955325.1.2.3,bus2=BMT109142987.1.2.3,Phases=3,LineCode=tieSwitch,Length=0.001,Units=km,switch=T !numEQ 48226
new line.CTR427708 bus1=BMT154326572.1.2.3,bus2=BMT100954611.1.2.3,Phases=3,LineCode=tieSwitch,Length=0.001,Units=km,switch=T !numEQ 48230
new line.CTR427715 bus1=BMT100954688.1.2.3,bus2=BMT172157931.1.2.3,Phases=3,LineCode=tieSwitch,Length=0.001,Units=km,switch=T !numEQ 48232
new line.CTR427729 bus1=BMT100953785.1.2.3,bus2=BMT100954065.1.2.3,Phases=3,LineCode=tieSwitch,Length=0.001,Units=km,switch=T !numEQ 48237
new line.CTR427736 bus1=BMT100954310.1.2.3,bus2=BMT150341205.1.2.3,Phases=3,LineCode=tieSwitch,Length=0.001,Units=km,switch=T !numEQ 48239
new line.CTR427750 bus1=BMT100954163.1,bus2=BMT162494938.1,Phases=1,LineCode=tieSwitch1,Length=0.001,Units=km,switch=T !numEQ 48246
new line.CTR427757 bus1=BMT100946708.1.2.3,bus2=BMT159908465.1.2.3,Phases=3,LineCode=tieSwitch,Length=0.001,Units=km,switch=T !numEQ 48248
new line.CTR427883 bus1=BMT100949389.1.2.3,bus2=BMT100949711.1.2.3,Phases=3,LineCode=tieSwitch,Length=0.001,Units=km,switch=T !numEQ 48284
new line.CTR427890 bus1=BMT100948045.1.2.3,bus2=BMT100948080.1.2.3,Phases=3,LineCode=tieSwitch,Length=0.001,Units=km,switch=T !numEQ 48286
new line.CTR427897 bus1=BMT100947968.1.2.3,bus2=BMT100947989.1.2.3,Phases=3,LineCode=tieSwitch,Length=0.001,Units=km,switch=T !numEQ 48289
new line.CTR427911 bus1=BMT100949368.1.2.3,bus2=BMT154393387.1.2.3,Phases=3,LineCode=tieSwitch,Length=0.001,Units=km,switch=T !numEQ 48293
new line.CTR427918 bus1=BMT100949627.1.2.3,bus2=BMT173216035.1.2.3,Phases=3,LineCode=tieSwitch,Length=0.001,Units=km,switch=T !numEQ 48295
new line.CTR427925 bus1=BMT100949767.1.2.3,bus2=BMT100949795.1.2.3,Phases=3,LineCode=tieSwitch,Length=0.001,Units=km,switch=T !numEQ 48298
new line.CTR427932 bus1=BMT100949823.1.2.3,bus2=BMT157895759.1.2.3,Phases=3,LineCode=tieSwitch,Length=0.001,Units=km,switch=T !numEQ 48300
new line.CTR427939 bus1=BMT100950187.1.2.3,bus2=BMT151684312.1.2.3,Phases=3,LineCode=tieSwitch,Length=0.001,Units=km,switch=T !numEQ 48302
new line.CTR427946 bus1=BMT100949851.1.2.3,bus2=BMT132317131.1.2.3,Phases=3,LineCode=tieSwitch,Length=0.001,Units=km,switch=T !numEQ 48304
new line.CTR427953 bus1=BMT100949935.1.2.3,bus2=BMT152618679.1.2.3,Phases=3,LineCode=tieSwitch,Length=0.001,Units=km,switch=T !numEQ 48306
new line.CTR427995 bus1=BMT100950824.1.2.3,bus2=BMT100950831.1.2.3,Phases=3,LineCode=tieSwitch,Length=0.001,Units=km,switch=T !numEQ 48316
new line.CTR428023 bus1=BMT100951440.1.2.3,bus2=BMT164224995.1.2.3,Phases=3,LineCode=tieSwitch,Length=0.001,Units=km,switch=T !numEQ 48325
new line.CTR428030 bus1=BMT100951559.1.2.3,bus2=BMT100951566.1.2.3,Phases=3,LineCode=tieSwitch,Length=0.001,Units=km,switch=T !numEQ 48328
new line.CTR428044 bus1=BMT100951062.1.2.3,bus2=BMT153852901.1.2.3,Phases=3,LineCode=tieSwitch,Length=0.001,Units=km,switch=T !numEQ 48340
new line.CTR174140 bus1=BMT100952735.1.2.3,bus2=BMT100953442.1.2.3,Phases=3,LineCode=tieSwitch,Length=0.001,Units=km,switch=T !numEQ 109680
new line.CTR233696 bus1=BMT172309876.1.2.3,bus2=BMT100944678.1.2.3,Phases=3,LineCode=tieSwitch,Length=0.001,Units=km,switch=T !numEQ 49633
open line.CTR233696 term=1
new line.CTR233738 bus1=BMT100947947.1.2.3,bus2=BMT154386433.1.2.3,Phases=3,LineCode=tieSwitch,Length=0.001,Units=km,switch=T !numEQ 49638
new line.CTR234032 bus1=BMT100960827.1.2.3,bus2=BMT100960834.1.2.3,Phases=3,LineCode=tieSwitch,Length=0.001,Units=km,switch=T !numEQ 49551
new line.CTR234067 bus1=BMT156119587.1.2.3,bus2=BMT156119590.1.2.3,Phases=3,LineCode=tieSwitch,Length=0.001,Units=km,switch=T !numEQ 49561
new line.CTR234305 bus1=BMT100950845.1.2.3,bus2=BMT155372781.1.2.3,Phases=3,LineCode=tieSwitch,Length=0.001,Units=km,switch=T !numEQ 49472
new line.CTR234410 bus1=BMT100957803.1.2.3,bus2=BMT100957831.1.2.3,Phases=3,LineCode=tieSwitch,Length=0.001,Units=km,switch=T !numEQ 49422
new line.CTR234529 bus1=BMT100944601.2,bus2=BMT100944699.2,Phases=1,LineCode=tieSwitch1,Length=0.001,Units=km,switch=T !numEQ 49447
new line.CTR234550 bus1=BMT100954219.1.2.3,bus2=BMT100954247.1.2.3,Phases=3,LineCode=tieSwitch,Length=0.001,Units=km,switch=T !numEQ 49357
new line.CTR234704 bus1=BMT100946799.1.2.3,bus2=BMT100947240.1.2.3,Phases=3,LineCode=tieSwitch,Length=0.001,Units=km,switch=T !numEQ 49320
new line.CTR235096 bus1=BMT100954170.1.2.3,bus2=BMT172596877.1.2.3,Phases=3,LineCode=tieSwitch,Length=0.001,Units=km,switch=T !numEQ 49230
new line.CTR235138 bus1=BMT156119588.1.2.3,bus2=BMT156119622.1.2.3,Phases=3,LineCode=tieSwitch,Length=0.001,Units=km,switch=T !numEQ 49157
new line.CTR235194 bus1=BMT100944118.1.2.3,bus2=BMT148753587.1.2.3,Phases=3,LineCode=tieSwitch,Length=0.001,Units=km,switch=T !numEQ 49181
new line.CTR235320 bus1=BMT100948206.1.2.3,bus2=BMT100949284.1.2.3,Phases=3,LineCode=tieSwitch,Length=0.001,Units=km,switch=T !numEQ 49122
new line.CTR235348 bus1=BMT100957432.1.2.3,bus2=BMT100957502.1.2.3,Phases=3,LineCode=tieSwitch,Length=0.001,Units=km,switch=T !numEQ 49145
new line.CTR235390 bus1=BMT169585673.1.2.3,bus2=BMT100955717.1.2.3,Phases=3,LineCode=tieSwitch,Length=0.001,Units=km,switch=T !numEQ 49150
new line.CTR235579 bus1=BMT171602963.1.2.3,bus2=BMT3520939.1.2.3,Phases=3,LineCode=tieSwitch,Length=0.001,Units=km,switch=T !numEQ 49041
new line.CTR235726 bus1=BMT100945301.1.2.3,bus2=BMT100945420.1.2.3,Phases=3,LineCode=tieSwitch,Length=0.001,Units=km,switch=T !numEQ 49004
new line.CTR235740 bus1=BMT100949333.1.2.3,bus2=BMT167151991.1.2.3,Phases=3,LineCode=tieSwitch,Length=0.001,Units=km,switch=T !numEQ 49006
new line.CTR235796 bus1=BMT152796885.1.2.3,bus2=BMT148655837.1.2.3,Phases=3,LineCode=tieSwitch,Length=0.001,Units=km,switch=T !numEQ 49034
new line.CTR235992 bus1=BMT151253308.1.2.3,bus2=BMT100953708.1.2.3,Phases=3,LineCode=tieSwitch,Length=0.001,Units=km,switch=T !numEQ 48995
new line.CTR328154 bus1=BMT100945504.1.2.3,bus2=BMT159576006.1.2.3,Phases=3,LineCode=tieSwitch,Length=0.001,Units=km,switch=T !numEQ 125999
new line.CTR35169 bus1=BMT100952070.1.2.3,bus2=BMT149914553.1.2.3,Phases=3,LineCode=tieSwitch,Length=0.001,Units=km,switch=T !numEQ 78274
new line.CTR444914 bus1=BMT100954471.1.2.3,bus2=BMT100954485.1.2.3,Phases=3,LineCode=tieSwitch,Length=0.001,Units=km,switch=T !numEQ 70188
new line.CTR489889 bus1=BMT100945623.1.2.3,bus2=BMT100945672.1.2.3,Phases=3,LineCode=tieSwitch,Length=0.001,Units=km,switch=T !numEQ 180611
new line.CTR49141 bus1=BMT100952924.1.2.3,bus2=BMT100952931.1.2.3,Phases=3,LineCode=tieSwitch,Length=0.001,Units=km,switch=T !numEQ 51201
new line.CTR49169 bus1=BMT100952889.1.2.3,bus2=BMT169359420.1.2.3,Phases=3,LineCode=tieSwitch,Length=0.001,Units=km,switch=T !numEQ 51208
new line.CTR49225 bus1=BMT100951888.1.2.3,bus2=BMT158367471.1.2.3,Phases=3,LineCode=tieSwitch,Length=0.001,Units=km,switch=T !numEQ 51212
new line.CTR494593 bus1=BMT100950796.1.2.3,bus2=BMT136901816.1.2.3,Phases=3,LineCode=tieSwitch,Length=0.001,Units=km,switch=T !numEQ 48312
new line.CTR51871 bus1=BMT170853641.1.2.3,bus2=BMT100944531.1.2.3,Phases=3,LineCode=tieSwitch,Length=0.001,Units=km,switch=T !numEQ 49417
new line.CTR52067 bus1=BMT100961135.1.2.3,bus2=BMT152878659.1.2.3,Phases=3,LineCode=tieSwitch,Length=0.001,Units=km,switch=T !numEQ 49330
new line.CTR522383 bus1=BMT100958244.1.2.3,bus2=BMT100960806.1.2.3,Phases=3,LineCode=tieSwitch,Length=0.001,Units=km,switch=T !numEQ 48390
new line.CTR554079 bus1=BMT100949501.1.2.3,bus2=BMT138759399.1.2.3,Phases=3,LineCode=tieSwitch,Length=0.001,Units=km,switch=T !numEQ 49420
new line.CTR554317 bus1=BMT100947863.1.2.3,bus2=BMT104814341.1.2.3,Phases=3,LineCode=tieSwitch,Length=0.001,Units=km,switch=T !numEQ 49324
new line.CTR554345 bus1=BMT100950733.1.2.3,bus2=BMT100950740.1.2.3,Phases=3,LineCode=tieSwitch,Length=0.001,Units=km,switch=T !numEQ 49326
new line.CTR554373 bus1=BMT100955619.1.2.3,bus2=BMT173097170.1.2.3,Phases=3,LineCode=tieSwitch,Length=0.001,Units=km,switch=T !numEQ 49328
new line.CTR554583 bus1=BMT171099020.1.2.3,bus2=BMT100951867.1.2.3,Phases=3,LineCode=tieSwitch,Length=0.001,Units=km,switch=T !numEQ 49199
open line.CTR554583 term=1
new line.CTR55483 bus1=BMT149065972.1.2.3,bus2=BMT100946204.1.2.3,Phases=3,LineCode=tieSwitch,Length=0.001,Units=km,switch=T !numEQ 48387
new line.CTR55511 bus1=BMT100945084.1.2.3,bus2=BMT165331692.1.2.3,Phases=3,LineCode=tieSwitch,Length=0.001,Units=km,switch=T !numEQ 48389
new line.CTR55539 bus1=BMT115029567.1.2.3,bus2=BMT115031632.1.2.3,Phases=3,LineCode=tieSwitch,Length=0.001,Units=km,switch=T !numEQ 48391
new line.CTR555423 bus1=BMT100944195.1.2.3,bus2=BMT100944209.1.2.3,Phases=3,LineCode=tieSwitch,Length=0.001,Units=km,switch=T !numEQ 49019
new line.CTR555451 bus1=BMT100946400.1.2.3,bus2=BMT100947352.1.2.3,Phases=3,LineCode=tieSwitch,Length=0.001,Units=km,switch=T !numEQ 49024
new line.CTR55637 bus1=BMT100952777.1.2.3,bus2=BMT150341197.1.2.3,Phases=3,LineCode=tieSwitch,Length=0.001,Units=km,switch=T !numEQ 48350
new line.CTR55686 bus1=BMT100947660.1.2.3,bus2=BMT100947716.1.2.3,Phases=3,LineCode=tieSwitch,Length=0.001,Units=km,switch=T !numEQ 48354
new line.CTR557033 bus1=BMT100961247.1.2.3,bus2=BMT165145608.1.2.3,Phases=3,LineCode=tieSwitch,Length=0.001,Units=km,switch=T !numEQ 48527
new line.CTR557061 bus1=BMT100958188.1.2.3,bus2=BMT161862640.1.2.3,Phases=3,LineCode=tieSwitch,Length=0.001,Units=km,switch=T !numEQ 48529
new line.CTR557089 bus1=BMT100958202.1.2.3,bus2=BMT139699030.1.2.3,Phases=3,LineCode=tieSwitch,Length=0.001,Units=km,switch=T !numEQ 48530
new line.CTR557187 bus1=BMT167983603.1.2.3,bus2=BMT156119592.1.2.3,Phases=3,LineCode=tieSwitch,Length=0.001,Units=km,switch=T !numEQ 48491
open line.CTR557187 term=1
new line.CTR171585 bus1=BMT101011472.1.2.3,bus2=BMT101012067.1.2.3,Phases=3,LineCode=tieSwitch,Length=0.001,Units=km,switch=T !numEQ 181031
new line.CTR219395 bus1=BMT100957698.1.2.3,bus2=BMT100957705.1.2.3,Phases=3,LineCode=tieSwitch,Length=0.001,Units=km,switch=T !numEQ 73726
new line.CTR219619 bus1=BMT158869047.1.2.3,bus2=BMT100945266.1.2.3,Phases=3,LineCode=tieSwitch,Length=0.001,Units=km,switch=T !numEQ 73498
new line.CTR219633 bus1=BMT100945000.1.2.3,bus2=BMT158869043.1.2.3,Phases=3,LineCode=tieSwitch,Length=0.001,Units=km,switch=T !numEQ 73499
new line.CTR237231 bus1=BMT100949102.1.2.3,bus2=BMT100948941.1.2.3,Phases=3,LineCode=tieSwitch,Length=0.001,Units=km,switch=T !numEQ 48624
open line.CTR237231 term=1
new line.CTR237546 bus1=BMT100961331.1.2.3,bus2=BMT157409760.1.2.3,Phases=3,LineCode=tieSwitch,Length=0.001,Units=km,switch=T !numEQ 48552
new line.CTR237574 bus1=BMT100961415.1.2.3,bus2=BMT100961422.1.2.3,Phases=3,LineCode=tieSwitch,Length=0.001,Units=km,switch=T !numEQ 48555
new line.CTR237637 bus1=BMT156119642.1.2.3,bus2=BMT156119563.1.2.3,Phases=3,LineCode=tieSwitch,Length=0.001,Units=km,switch=T !numEQ 48506
open line.CTR237637 term=1
new line.CTR237651 bus1=BMT156119601.1.2.3,bus2=BMT156119613.1.2.3,Phases=3,LineCode=tieSwitch,Length=0.001,Units=km,switch=T !numEQ 48508
new line.CTR237665 bus1=BMT100943418.1.2.3,bus2=BMT100943432.1.2.3,Phases=3,LineCode=tieSwitch,Length=0.001,Units=km,switch=T !numEQ 48521
new line.CTR237749 bus1=BMT100961233.1.2.3,bus2=BMT3529871.1.2.3,Phases=3,LineCode=tieSwitch,Length=0.001,Units=km,switch=T !numEQ 48523
open line.CTR237749 term=1
new line.CTR237791 bus1=BMT100946428.1.2.3,bus2=BMT164868452.1.2.3,Phases=3,LineCode=tieSwitch,Length=0.001,Units=km,switch=T !numEQ 48469
new line.CTR237805 bus1=BMT100944244.1.2.3,bus2=BMT167904643.1.2.3,Phases=3,LineCode=tieSwitch,Length=0.001,Units=km,switch=T !numEQ 48471
new line.CTR237819 bus1=BMT100944314.1.2.3,bus2=BMT170651261.1.2.3,Phases=3,LineCode=tieSwitch,Length=0.001,Units=km,switch=T !numEQ 48473
new line.CTR237833 bus1=BMT100946435.1.2.3,bus2=BMT100946477.1.2.3,Phases=3,LineCode=tieSwitch,Length=0.001,Units=km,switch=T !numEQ 48475
new line.CTR237861 bus1=BMT100945070.1.2.3,bus2=BMT161029627.1.2.3,Phases=3,LineCode=tieSwitch,Length=0.001,Units=km,switch=T !numEQ 48478
new line.CTR237875 bus1=BMT100946610.1.2.3,bus2=BMT164022841.1.2.3,Phases=3,LineCode=tieSwitch,Length=0.001,Units=km,switch=T !numEQ 48480
new line.CTR237903 bus1=BMT100948381.1.2.3,bus2=BMT159294963.1.2.3,Phases=3,LineCode=tieSwitch,Length=0.001,Units=km,switch=T !numEQ 48484
new line.CTR237931 bus1=BMT101011318.1.2.3,bus2=BMT165779949.1.2.3,Phases=3,LineCode=tieSwitch,Length=0.001,Units=km,switch=T !numEQ 48408
new line.CTR238099 bus1=BMT151936948.1.2.3,bus2=BMT100943649.1.2.3,Phases=3,LineCode=tieSwitch,Length=0.001,Units=km,switch=T !numEQ 48393
open line.CTR238099 term=1
new line.CTR238113 bus1=BMT169525363.1.2.3,bus2=BMT100943880.1.2.3,Phases=3,LineCode=tieSwitch,Length=0.001,Units=km,switch=T !numEQ 48395
new line.CTR238127 bus1=BMT165360956.1.2.3,bus2=BMT100943740.1.2.3,Phases=3,LineCode=tieSwitch,Length=0.001,Units=km,switch=T !numEQ 48397
new line.CTR238141 bus1=BMT127036443.1.2.3,bus2=BMT100943747.1.2.3,Phases=3,LineCode=tieSwitch,Length=0.001,Units=km,switch=T !numEQ 48399
open line.CTR238141 term=1
new line.CTR238169 bus1=BMT101011381.1.2.3,bus2=BMT161583719.1.2.3,Phases=3,LineCode=tieSwitch,Length=0.001,Units=km,switch=T !numEQ 241565
new line.CTR238239 bus1=BMT100950894.1.2.3,bus2=BMT170769340.1.2.3,Phases=3,LineCode=tieSwitch,Length=0.001,Units=km,switch=T !numEQ 48324
new line.CTR238309 bus1=BMT157441423.1.2.3,bus2=BMT101011276.1.2.3,Phases=3,LineCode=tieSwitch,Length=0.001,Units=km,switch=T !numEQ 48364
new line.CTR238330 bus1=BMT136901830.1.2.3,bus2=BMT159794300.1.2.3,Phases=3,LineCode=tieSwitch,Length=0.001,Units=km,switch=T !numEQ 48281
new line.CTR238344 bus1=BMT100950320.1.2.3,bus2=BMT159794222.1.2.3,Phases=3,LineCode=tieSwitch,Length=0.001,Units=km,switch=T !numEQ 48283
new line.CTR238358 bus1=BMT100947884.1.2.3,bus2=BMT136903230.1.2.3,Phases=3,LineCode=tieSwitch,Length=0.001,Units=km,switch=T !numEQ 48285
new line.CTR238372 bus1=BMT100948066.1.2.3,bus2=BMT157634031.1.2.3,Phases=3,LineCode=tieSwitch,Length=0.001,Units=km,switch=T !numEQ 48287
new line.CTR238393 bus1=BMT100948185.1.2.3,bus2=BMT172671428.1.2.3,Phases=3,LineCode=tieSwitch,Length=0.001,Units=km,switch=T !numEQ 48288
new line.CTR238463 bus1=BMT100946176.1.2.3,bus2=BMT100946211.1.2.3,Phases=3,LineCode=tieSwitch,Length=0.001,Units=km,switch=T !numEQ 48245
new line.CTR238477 bus1=BMT100954226.1.2.3,bus2=BMT100954233.1.2.3,Phases=3,LineCode=tieSwitch,Length=0.001,Units=km,switch=T !numEQ 48247
new line.CTR238512 bus1=BMT100949879.1.2.3,bus2=BMT133045257.1.2.3,Phases=3,LineCode=tieSwitch,Length=0.001,Units=km,switch=T !numEQ 48305
new line.CTR238610 bus1=BMT100953540.1.2.3,bus2=BMT165013515.1.2.3,Phases=3,LineCode=tieSwitch,Length=0.001,Units=km,switch=T !numEQ 48206
new line.CTR238624 bus1=BMT163264710.1.2.3,bus2=BMT173198919.1.2.3,Phases=3,LineCode=tieSwitch,Length=0.001,Units=km,switch=T !numEQ 48208
new line.CTR238687 bus1=BMT100954380.1.2.3,bus2=BMT100954555.1.2.3,Phases=3,LineCode=tieSwitch,Length=0.001,Units=km,switch=T !numEQ 48215
new line.CTR238715 bus1=BMT100954072.1.2.3,bus2=BMT100954296.1.2.3,Phases=3,LineCode=tieSwitch,Length=0.001,Units=km,switch=T !numEQ 48238
new line.CTR238729 bus1=BMT171099021.1.2.3,bus2=BMT172279772.1.2.3,Phases=3,LineCode=tieSwitch,Length=0.001,Units=km,switch=T !numEQ 48240
new line.CTR404160 bus1=BMT100951272.1.2.3,bus2=BMT100951412.1.2.3,Phases=3,LineCode=tieSwitch,Length=0.001,Units=km,switch=T !numEQ 205291
new line.CTR445306 bus1=BMT100953365.1.2.3,bus2=BMT154907670.1.2.3,Phases=3,LineCode=tieSwitch,Length=0.001,Units=km,switch=T !numEQ 73469
new line.CTR445376 bus1=BMT100945791.1.2.3,bus2=BMT100947821.1.2.3,Phases=3,LineCode=tieSwitch,Length=0.001,Units=km,switch=T !numEQ 73497
new line.CTR445383 bus1=BMT100952308.1.2.3,bus2=BMT100952644.1.2.3,Phases=3,LineCode=tieSwitch,Length=0.001,Units=km,switch=T !numEQ 73500
new line.CTR445404 bus1=BMT100951846.1.2.3,bus2=BMT104317145.1.2.3,Phases=3,LineCode=tieSwitch,Length=0.001,Units=km,switch=T !numEQ 73512
new line.CTR447077 bus1=BMT100951944.1.2.3,bus2=BMT100951965.1.2.3,Phases=3,LineCode=tieSwitch,Length=0.001,Units=km,switch=T !numEQ 78270
new line.CTR448603 bus1=BMT100951930.1.2.3,bus2=BMT100952182.1.2.3,Phases=3,LineCode=tieSwitch,Length=0.001,Units=km,switch=T !numEQ 78789
new line.CTR54307 bus1=BMT122788409.1.2.3,bus2=BMT100961212.1.2.3,Phases=3,LineCode=tieSwitch,Length=0.001,Units=km,switch=T !numEQ 48690
new line.CTR663832 bus1=BMT100951377.1.2.3,bus2=BMT100951384.1.2.3,Phases=3,LineCode=tieSwitch,Length=0.001,Units=km,switch=T !numEQ 128135
new line.CTR158803 bus1=BMT100945805.1.2.3,bus2=BMT151432720.1.2.3,Phases=3,LineCode=tieSwitch,Length=0.001,Units=km,switch=T !numEQ 130053
new line.CTR203750 bus1=BMT104814355.1.2.3,bus2=BMT5892917.1.2.3,Phases=3,LineCode=tieSwitch,Length=0.001,Units=km,switch=T !numEQ 49183
open line.CTR203750 term=1
new line.CTR203778 bus1=BMT160932293.1.2.3,bus2=BMT5894268.1.2.3,Phases=3,LineCode=tieSwitch,Length=0.001,Units=km,switch=T !numEQ 49604
new line.CTR203792 bus1=BMT100950859.1.2.3,bus2=BMT160932291.1.2.3,Phases=3,LineCode=tieSwitch,Length=0.001,Units=km,switch=T !numEQ 49577
new line.CTR203806 bus1=BMT156119526.1.2.3,bus2=BMT156119523.1.2.3,Phases=3,LineCode=tieSwitch,Length=0.001,Units=km,switch=T !numEQ 73543
open line.CTR203806 term=1
new line.CTR203820 bus1=BMT160932769.1.2.3,bus2=BMT156119527.1.2.3,Phases=3,LineCode=tieSwitch,Length=0.001,Units=km,switch=T !numEQ 49392
open line.CTR203820 term=1
new line.CTR203890 bus1=BMT100950754.1.2.3,bus2=BMT100950761.1.2.3,Phases=3,LineCode=tieSwitch,Length=0.001,Units=km,switch=T !numEQ 49322
new line.CTR205192 bus1=BMT100954709.1.2.3,bus2=BMT100954730.1.2.3,Phases=3,LineCode=tieSwitch,Length=0.001,Units=km,switch=T !numEQ 48233
new line.CTR227382 bus1=BMT101011780.1.2.3,bus2=BMT101011787.1.2.3,Phases=3,LineCode=tieSwitch,Length=0.001,Units=km,switch=T !numEQ 65987
new line.CTR344688 bus1=BMT100955745.1.2.3,bus2=BMT168610250.1.2.3,Phases=3,LineCode=tieSwitch,Length=0.001,Units=km,switch=T !numEQ 139165
new line.CTR345549 bus1=BMT100957313.1.2.3,bus2=BMT109856763.1.2.3,Phases=3,LineCode=tieSwitch,Length=0.001,Units=km,switch=T !numEQ 128703
new line.CTR346592 bus1=BMT100951209.1.2.3,bus2=BMT100951748.1.2.3,Phases=3,LineCode=tieSwitch,Length=0.001,Units=km,switch=T !numEQ 126925
new line.CTR347929 bus1=BMT100951503.1.2.3,bus2=BMT100951510.1.2.3,Phases=3,LineCode=tieSwitch,Length=0.001,Units=km,switch=T !numEQ 142301
new line.CTR432209 bus1=BMT100943488.1.2.3,bus2=BMT100945742.1.2.3,Phases=3,LineCode=tieSwitch,Length=0.001,Units=km,switch=T !numEQ 49321
new line.CTR432216 bus1=BMT100943383.1.2.3,bus2=BMT152878578.1.2.3,Phases=3,LineCode=tieSwitch,Length=0.001,Units=km,switch=T !numEQ 49323
new line.CTR432223 bus1=BMT156119509.1.2.3,bus2=BMT160932757.1.2.3,Phases=3,LineCode=tieSwitch,Length=0.001,Units=km,switch=T !numEQ 49325
new line.CTR432230 bus1=BMT100953526.1.2.3,bus2=BMT100953533.1.2.3,Phases=3,LineCode=tieSwitch,Length=0.001,Units=km,switch=T !numEQ 49327
new line.CTR432517 bus1=BMT100945721.1.2.3,bus2=BMT100945728.1.2.3,Phases=3,LineCode=tieSwitch,Length=0.001,Units=km,switch=T !numEQ 49414
new line.CTR432559 bus1=BMT101011535.1.2.3,bus2=BMT158946686.1.2.3,Phases=3,LineCode=tieSwitch,Length=0.001,Units=km,switch=T !numEQ 49432