new line.10963408 bus1=BBT2878717.1.2.0,bus2=BBT2878724.1.2.0,Phases=2,Linecode=BT801_BT801_4_2_3,Length=0.036986000,Units=km
new line.10963443 bus1=BBT2878724.1.2.0,bus2=BBT2878731.1.2.0,Phases=2,Linecode=BT801_BT801_4_2_3,Length=0.036661000,Units=km
new line.11471454 bus1=BBT3013586.1.2.3.0,bus2=BBT3013593.1.2.3.0,Phases=3,Linecode=BT108_BT107_7_3_1,Length=0.004999000,Units=km
new line.11471608 bus1=BBT3013593.1.2.3.0,bus2=BBT1969641.1.2.3.0,Phases=3,Linecode=BT108_BT107_7_3_1,Length=0.035596000,Units=km
new line.11471615 bus1=BBT3013593.1.2.3.0,bus2=BBT1969648.1.2.3.0,Phases=3,Linecode=BT107_BT107_7_3_1,Length=0.026239000,Units=km
new line.11471622 bus1=BBT3013593.1.2.3.0,bus2=BBT3013614.1.2.3.0,Phases=3,Linecode=BT107_BT107_7_3_1,Length=0.002999000,Units=km
new line.12387992 bus1=BBT3296246.1.2.0,bus2=BBT3296253.1.2.0,Phases=2,Linecode=BT506_BT506_5_2_1,Length=0.004122000,Units=km
new line.12388013 bus1=BBT3296211.1.2.3.0,bus2=BBT3296232.1.2.3.0,Phases=3,Linecode=BT506_BT506_5_3_1,Length=0.003999000,Units=km
new line.12388020 bus1=BBT3296211.1.2.0,bus2=BBT3296260.1.2.0,Phases=2,Linecode=BT506_BT506_5_2_1,Length=0.044535000,Units=km
new line.12388034 bus1=BBT3296239.1.2.0,bus2=BBT3296246.1.2.0,Phases=2,Linecode=BT506_BT506_5_2_1,Length=0.044535000,Units=km
new line.12388055 bus1=BBT3296204.1.2.3.0,bus2=BBT3296211.1.2.3.0,Phases=3,Linecode=BT506_BT506_5_3_1,Length=0.044535000,Units=km
new line.12388076 bus1=BBT3296190.1.2.3.0,bus2=BBT3296197.1.2.3.0,Phases=3,Linecode=BT507_BT507_5_3_1,Length=0.003999000,Units=km
new line.12388083 bus1=BBT3296190.1.2.3.0,bus2=BBT3296239.1.2.3.0,Phases=3,Linecode=BT506_BT506_5_3_1,Length=0.043845000,Units=km
new line.12388104 bus1=BBT3296169.1.2.3.0,bus2=BBT3296176.1.2.3.0,Phases=3,Linecode=BT507_BT507_5_3_1,Length=0.003999000,Units=km
new line.12388111 bus1=BBT3296169.1.2.3.0,bus2=BBT3296204.1.2.3.0,Phases=3,Linecode=BT507_BT507_5_3_1,Length=0.042409000,Units=km
new line.12388132 bus1=BBT3296183.1.2.3.0,bus2=BBT3296190.1.2.3.0,Phases=3,Linecode=BT507_BT507_5_3_1,Length=0.042409000,Units=km
new line.12388636 bus1=BBT3296561.1.3.0,bus2=BBT3296568.1.3.0,Phases=2,Linecode=BT506_BT506_5_2_1,Length=0.004122000,Units=km
new line.12388671 bus1=BBT3296547.1.3.0,bus2=BBT3296561.1.3.0,Phases=2,Linecode=BT506_BT506_5_2_1,Length=0.026915000,Units=km
new line.12388678 bus1=BBT3296547.1.2.3.0,bus2=BBT3296624.1.2.3.0,Phases=3,Linecode=BT506_BT506_5_3_1,Length=0.035341000,Units=km
new line.12388699 bus1=BBT3296533.1.2.3.0,bus2=BBT3296575.1.2.3.0,Phases=3,Linecode=BT509_BT509_5_3_1,Length=0.004241000,Units=km
new line.12388706 bus1=BBT3296533.1.3.0,bus2=BBT3296554.1.3.0,Phases=2,Linecode=BT506_BT506_5_2_1,Length=0.024177000,Units=km
new line.12388713 bus1=BBT3296533.1.2.3.0,bus2=BBT3296617.1.2.3.0,Phases=3,Linecode=BT506_BT506_5_3_1,Length=0.034352000,Units=km
new line.12388720 bus1=BBT3296512.1.2.3.0,bus2=BBT3296631.1.2.3.0,Phases=3,Linecode=BT515_BT515_5_3_1,Length=0.033363000,Units=km
new line.12388916 bus1=BBT3296617.1.2.3.0,bus2=BBT3296680.1.2.3.0,Phases=3,Linecode=BT506_BT506_5_3_1,Length=0.033123000,Units=km
new line.12388937 bus1=BBT3296624.1.2.3.0,bus2=BBT3296638.1.2.3.0,Phases=3,Linecode=BT506_BT506_5_3_1,Length=0.004241000,Units=km
new line.12388944 bus1=BBT3296624.1.2.3.0,bus2=BBT3296694.1.2.3.0,Phases=3,Linecode=BT506_BT506_5_3_1,Length=0.033123000,Units=km
new line.12388965 bus1=BBT3296631.1.2.3.0,bus2=BBT3296701.1.2.3.0,Phases=3,Linecode=BT515_BT515_5_3_1,Length=0.033123000,Units=km
new line.12389203 bus1=BBT3296715.1.2.3.0,bus2=BBT3296722.1.2.3.0,Phases=3,Linecode=BT509_BT509_5_3_1,Length=0.014207000,Units=km
new line.12389217 bus1=BBT3296722.1.2.3.0,bus2=BBT3296729.1.2.3.0,Phases=3,Linecode=BT509_BT509_5_3_1,Length=0.014860000,Units=km
new line.12389259 bus1=BBT3296729.1.2.3.0,bus2=BBT3296743.1.2.3.0,Phases=3,Linecode=BT509_BT509_5_3_1,Length=0.046991000,Units=km
new line.12389266 bus1=BBT3296729.1.2.3.0,bus2=BBT3296736.1.2.3.0,Phases=3,Linecode=BT509_BT509_5_3_1,Length=0.048281000,Units=km
new line.12389315 bus1=BBT3296680.1.2.3.0,bus2=BBT3296687.1.2.3.0,Phases=3,Linecode=BT506_BT506_5_3_1,Length=0.003605000,Units=km
new line.12389322 bus1=BBT3296680.1.2.3.0,bus2=BBT3296764.1.2.3.0,Phases=3,Linecode=BT506_BT506_5_3_1,Length=0.031562000,Units=km
new line.12389343 bus1=BBT3296694.1.2.3.0,bus2=BBT3296750.1.2.3.0,Phases=3,Linecode=BT506_BT506_5_3_1,Length=0.032544000,Units=km
new line.12389364 bus1=BBT3296701.1.2.3.0,bus2=BBT3296708.1.2.3.0,Phases=3,Linecode=BT515_BT515_5_3_1,Length=0.029821000,Units=km
new line.12389378 bus1=BBT3296764.1.2.3.0,bus2=BBT3296785.1.2.3.0,Phases=3,Linecode=BT506_BT506_5_3_1,Length=0.030137000,Units=km
new line.12389399 bus1=BBT3296750.1.2.3.0,bus2=BBT3296757.1.2.3.0,Phases=3,Linecode=BT506_BT506_5_3_1,Length=0.003605000,Units=km
new line.12389406 bus1=BBT3296750.1.2.3.0,bus2=BBT3296799.1.2.3.0,Phases=3,Linecode=BT506_BT506_5_3_1,Length=0.029057000,Units=km
new line.12389427 bus1=BBT3296708.1.2.3.0,bus2=BBT3296715.1.2.3.0,Phases=3,Linecode=BT509_BT509_5_3_1,Length=0.004998000,Units=km
new line.12389875 bus1=BBT3296799.1.2.3.0,bus2=BBT3296806.1.2.3.0,Phases=3,Linecode=BT506_BT506_5_3_1,Length=0.032049000,Units=km
new line.12389896 bus1=BBT3296785.1.2.3.0,bus2=BBT3296792.1.2.3.0,Phases=3,Linecode=BT506_BT506_5_3_1,Length=0.004241000,Units=km
new line.12389903 bus1=BBT3296785.1.2.3.0,bus2=BBT3296820.1.2.3.0,Phases=3,Linecode=BT506_BT506_5_3_1,Length=0.032049000,Units=km
new line.12389945 bus1=BBT3296806.1.2.3.0,bus2=BBT3296813.1.2.3.0,Phases=3,Linecode=BT506_BT506_5_3_1,Length=0.004241000,Units=km
new line.12389952 bus1=BBT3296806.1.2.3.0,bus2=BBT3296848.1.2.3.0,Phases=3,Linecode=BT506_BT506_5_3_1,Length=0.030987000,Units=km
new line.12389966 bus1=BBT3296820.1.2.3.0,bus2=BBT3296834.1.2.3.0,Phases=3,Linecode=BT506_BT506_5_3_1,Length=0.030987000,Units=km
new line.12389980 bus1=BBT3296848.1.2.3.0,bus2=BBT3296855.1.2.3.0,Phases=3,Linecode=BT506_BT506_5_3_1,Length=0.033123000,Units=km
new line.12390001 bus1=BBT3296834.1.2.3.0,bus2=BBT3296841.1.2.3.0,Phases=3,Linecode=BT506_BT506_5_3_1,Length=0.004241000,Units=km
new line.12390008 bus1=BBT3296834.1.2.3.0,bus2=BBT3296869.1.2.3.0,Phases=3,Linecode=BT506_BT506_5_3_1,Length=0.030137000,Units=km
new line.12390043 bus1=BBT3296855.1.2.3.0,bus2=BBT3296862.1.2.3.0,Phases=3,Linecode=BT506_BT506_5_3_1,Length=0.004122000,Units=km
new line.12390050 bus1=BBT3296855.1.2.3.0,bus2=BBT3296890.1.2.3.0,Phases=3,Linecode=BT506_BT506_5_3_1,Length=0.033228000,Units=km
new line.12390071 bus1=BBT3296869.1.2.3.0,bus2=BBT3296876.1.2.3.0,Phases=3,Linecode=BT506_BT506_5_3_1,Length=0.031940000,Units=km
new line.12390078 bus1=BBT3296890.1.3.0,bus2=BBT3296904.1.3.0,Phases=2,Linecode=BT506_BT506_5_2_1,Length=0.034045000,Units=km
new line.12390092 bus1=BBT3296876.1.2.3.0,bus2=BBT3296883.1.2.3.0,Phases=3,Linecode=BT506_BT506_5_3_1,Length=0.004122000,Units=km
new line.12390099 bus1=BBT3296876.1.3.0,bus2=BBT3296918.1.3.0,Phases=2,Linecode=BT506_BT506_5_2_1,Length=0.032789000,Units=km
new line.12390113 bus1=BBT3296904.1.3.0,bus2=BBT3296911.1.3.0,Phases=2,Linecode=BT506_BT506_5_2_1,Length=0.003999000,Units=km
new line.12390491 bus1=BBT3297198.1.2.3.0,bus2=BBT3297205.1.2.3.0,Phases=3,Linecode=BT503_BT503_5_3_1,Length=0.011309000,Units=km
new line.12390498 bus1=BBT3297198.1.2.3.0,bus2=BBT3297226.1.2.3.0,Phases=3,Linecode=BT503_BT503_5_3_1,Length=0.050783000,Units=km
new line.12390505 bus1=BBT3297198.1.2.3.0,bus2=BBT3297268.1.2.3.0,Phases=3,Linecode=BT503_BT503_5_3_1,Length=0.035213000,Units=km
new line.12390554 bus1=BBT3297205.1.2.3.0,bus2=BBT3297212.1.2.3.0,Phases=3,Linecode=BT503_BT503_5_3_1,Length=0.026162000,Units=km
new line.12390575 bus1=BBT3297212.1.2.3.0,bus2=BBT3297219.1.2.3.0,Phases=3,Linecode=BT503_BT503_5_3_1,Length=0.034118000,Units=km
new line.12390694 bus1=BBT3297268.1.2.3.0,bus2=BBT3297275.1.2.3.0,Phases=3,Linecode=BT503_BT503_5_3_1,Length=0.070149000,Units=km
new line.12390715 bus1=BBT3297275.1.2.3.0,bus2=BBT3297282.1.2.3.0,Phases=3,Linecode=BT503_BT503_5_3_1,Length=0.039984000,Units=km
new line.12390736 bus1=BBT3297282.1.2.3.0,bus2=BBT3297289.1.2.3.0,Phases=3,Linecode=BT503_BT503_5_3_1,Length=0.042527000,Units=km
new line.12390820 bus1=BBT3297289.1.2.3.0,bus2=BBT3297296.1.2.3.0,Phases=3,Linecode=BT503_BT503_5_3_1,Length=0.053213000,Units=km
new line.12390869 bus1=BBT3297303.1.2.3.0,bus2=BBT2059262.1.2.3.0,Phases=3,Linecode=BT509_BT509_5_3_1,Length=0.031004000,Units=km
new line.12390939 bus1=BBT3297352.1.2.3.0,bus2=BBT2059248.1.2.3.0,Phases=3,Linecode=BT509_BT509_5_3_1,Length=0.022838000,Units=km
new line.12390960 bus1=BBT3297373.1.2.3.0,bus2=BBT2059318.1.2.3.0,Phases=3,Linecode=BT507_BT507_5_3_1,Length=0.024342000,Units=km
new line.12392472 bus1=BBT3298059.1.2.0,bus2=BBT3529619.1.2.0,Phases=2,Linecode=BT502_BT502_5_2_1,Length=0.048313000,Units=km
new line.12392535 bus1=BBT3298080.1.2.0,bus2=BBT3298059.1.2.0,Phases=2,Linecode=BT502_BT502_5_2_1,Length=0.043846000,Units=km
new line.12392542 bus1=BBT3298080.1.2.0,bus2=BBT3298115.1.2.0,Phases=2,Linecode=BT504_BT504_5_2_1,Length=0.043445000,Units=km
new line.12392563 bus1=BBT3298115.1.2.0,bus2=BBT3298199.1.2.0,Phases=2,Linecode=BT504_BT504_5_2_1,Length=0.042936000,Units=km
new line.12392773 bus1=BBT3298199.1.2.0,bus2=BBT3298206.1.2.0,Phases=2,Linecode=BT504_BT504_5_2_1,Length=0.041613000,Units=km
new line.12392906 bus1=BBT3298227.1.2.0,bus2=BBT3529626.1.2.0,Phases=2,Linecode=BT502_BT502_5_2_1,Length=0.046500000,Units=km
new line.12392948 bus1=BBT3298234.1.2.0,bus2=BBT3298227.1.2.0,Phases=2,Linecode=BT502_BT502_5_2_1,Length=0.042031000,Units=km
new line.12405443 bus1=BBT3302259.1.2.3.0,bus2=BBT3302266.1.2.3.0,Phases=3,Linecode=BT509_BT509_5_3_1,Length=0.011176000,Units=km
new line.12405464 bus1=BBT3302266.1.2.3.0,bus2=BBT3302273.1.2.3.0,Phases=3,Linecode=BT509_BT509_5_3_1,Length=0.064231000,Units=km
new line.12405471 bus1=BBT3302266.1.2.3.0,bus2=BBT3302308.1.2.3.0,Phases=3,Linecode=BT509_BT509_5_3_1,Length=0.012995000,Units=km
new line.12405492 bus1=BBT3302273.1.2.3.0,bus2=BBT3302280.1.2.3.0,Phases=3,Linecode=BT509_BT509_5_3_1,Length=0.015226000,Units=km
new line.12405506 bus1=BBT3302280.1.2.3.0,bus2=BBT3302287.1.2.3.0,Phases=3,Linecode=BT509_BT509_5_3_1,Length=0.009845000,Units=km
new line.12405520 bus1=BBT3302287.1.2.3.0,bus2=BBT3302294.1.2.3.0,Phases=3,Linecode=BT509_BT509_5_3_1,Length=0.011700000,Units=km
new line.12405555 bus1=BBT3302308.1.2.3.0,bus2=BBT3302315.1.2.3.0,Phases=3,Linecode=BT509_BT509_5_3_1,Length=0.090765000,Units=km
new line.12406542 bus1=BBT3302511.1.2.3.0,bus2=BBT3302518.1.2.3.0,Phases=3,Linecode=BT509_BT509_5_3_1,Length=0.003999000,Units=km
new line.12406549 bus1=BBT3302511.1.2.3.0,bus2=BBT3302546.1.2.3.0,Phases=3,Linecode=BT509_BT509_5_3_1,Length=0.042924000,Units=km
new line.12406570 bus1=BBT3302525.1.2.3.0,bus2=BBT3302532.1.2.3.0,Phases=3,Linecode=BT509_BT509_5_3_1,Length=0.042924000,Units=km
new line.12406591 bus1=BBT3302546.1.2.3.0,bus2=BBT3302553.1.2.3.0,Phases=3,Linecode=BT509_BT509_5_3_1,Length=0.040690000,Units=km
new line.12406612 bus1=BBT3302532.1.2.3.0,bus2=BBT3302539.1.2.3.0,Phases=3,Linecode=BT509_BT509_5_3_1,Length=0.004122000,Units=km
new line.12406619 bus1=BBT3302532.1.2.3.0,bus2=BBT3302567.1.2.3.0,Phases=3,Linecode=BT509_BT509_5_3_1,Length=0.040233000,Units=km
new line.12406640 bus1=BBT3302553.1.2.3.0,bus2=BBT3302560.1.2.3.0,Phases=3,Linecode=BT509_BT509_5_3_1,Length=0.004122000,Units=km
new line.12406647 bus1=BBT3302553.1.2.3.0,bus2=BBT3302588.1.2.3.0,Phases=3,Linecode=BT509_BT509_5_3_1,Length=0.042468000,Units=km
new line.12406668 bus1=BBT3302567.1.2.3.0,bus2=BBT3302574.1.2.3.0,Phases=3,Linecode=BT509_BT509_5_3_1,Length=0.042468000,Units=km
new line.12406731 bus1=BBT3302679.1.2.0,bus2=BBT3302686.1.2.0,Phases=2,Linecode=BT506_BT506_5_2_1,Length=0.004122000,Units=km
new line.12406766 bus1=BBT3302672.1.2.0,bus2=BBT3302679.1.2.0,Phases=2,Linecode=BT506_BT506_5_2_1,Length=0.041612000,Units=km
new line.12406787 bus1=BBT3302658.1.2.3.0,bus2=BBT3302665.1.2.3.0,Phases=3,Linecode=BT507_BT507_5_3_1,Length=0.004122000,Units=km
new line.12406794 bus1=BBT3302658.1.2.0,bus2=BBT3302693.1.2.0,Phases=2,Linecode=BT506_BT506_5_2_1,Length=0.041612000,Units=km
new line.12406815 bus1=BBT3302637.1.2.3.0,bus2=BBT3302644.1.2.3.0,Phases=3,Linecode=BT507_BT507_5_3_1,Length=0.004122000,Units=km
new line.12406822 bus1=BBT3302637.1.2.3.0,bus2=BBT3302672.1.2.3.0,Phases=3,Linecode=BT507_BT507_5_3_1,Length=0.042936000,Units=km
new line.12406836 bus1=BBT3302651.1.2.3.0,bus2=BBT3302658.1.2.3.0,Phases=3,Linecode=BT507_BT507_5_3_1,Length=0.042936000,Units=km
new line.12406871 bus1=BBT3302630.1.2.3.0,bus2=BBT3302637.1.2.3.0,Phases=3,Linecode=BT507_BT507_5_3_1,Length=0.044703000,Units=km
new line.12406899 bus1=BBT3302616.1.2.3.0,bus2=BBT3302623.1.2.3.0,Phases=3,Linecode=BT509_BT509_5_3_1,Length=0.004122000,Units=km
new line.12406906 bus1=BBT3302616.1.2.3.0,bus2=BBT3302651.1.2.3.0,Phases=3,Linecode=BT507_BT507_5_3_1,Length=0.044703000,Units=km
new line.12406913 bus1=BBT3302595.1.2.3.0,bus2=BBT3302602.1.2.3.0,Phases=3,Linecode=BT509_BT509_5_3_1,Length=0.004122000,Units=km
new line.12406920 bus1=BBT3302595.1.2.3.0,bus2=BBT3302630.1.2.3.0,Phases=3,Linecode=BT509_BT509_5_3_1,Length=0.039796000,Units=km
new line.12406934 bus1=BBT3302609.1.2.3.0,bus2=BBT3302616.1.2.3.0,Phases=3,Linecode=BT509_BT509_5_3_1,Length=0.039796000,Units=km
new line.12406955 bus1=BBT3302588.1.2.3.0,bus2=BBT3302595.1.2.3.0,Phases=3,Linecode=BT509_BT509_5_3_1,Length=0.043364000,Units=km
new line.12406983 bus1=BBT3302574.1.2.3.0,bus2=BBT3302581.1.2.3.0,Phases=3,Linecode=BT509_BT509_5_3_1,Length=0.004122000,Units=km
new line.12406990 bus1=BBT3302574.1.2.3.0,bus2=BBT3302609.1.2.3.0,Phases=3,Linecode=BT509_BT509_5_3_1,Length=0.043364000,Units=km
new line.12412086 bus1=BBT3304436.1.2.3.0,bus2=BBT3304443.1.2.3.0,Phases=3,Linecode=BT509_BT509_5_3_1,Length=0.039278000,Units=km
new line.12412100 bus1=BBT3304401.1.2.3.0,bus2=BBT3304471.1.2.3.0,Phases=3,Linecode=BT509_BT509_5_3_1,Length=0.004241000,Units=km
new line.12412107 bus1=BBT3304401.1.2.3.0,bus2=BBT3304408.1.2.3.0,Phases=3,Linecode=BT509_BT509_5_3_1,Length=0.039278000,Units=km
new line.12412128 bus1=BBT3304443.1.2.3.0,bus2=BBT3304478.1.2.3.0,Phases=3,Linecode=BT509_BT509_5_3_1,Length=0.004241000,Units=km
new line.12412135 bus1=BBT3304443.1.2.3.0,bus2=BBT3304450.1.2.3.0,Phases=3,Linecode=BT509_BT509_5_3_1,Length=0.040245000,Units=km
new line.12412156 bus1=BBT3304408.1.2.3.0,bus2=BBT3304415.1.2.3.0,Phases=3,Linecode=BT509_BT509_5_3_1,Length=0.040245000,Units=km
new line.12412177 bus1=BBT3304415.1.2.3.0,bus2=BBT3304485.1.2.3.0,Phases=3,Linecode=BT509_BT509_5_3_1,Length=0.004241000,Units=km
new line.12412184 bus1=BBT3304415.1.2.3.0,bus2=BBT3304422.1.2.3.0,Phases=3,Linecode=BT509_BT509_5_3_1,Length=0.040008000,Units=km
new line.12412205 bus1=BBT3304450.1.2.3.0,bus2=BBT3304457.1.2.3.0,Phases=3,Linecode=BT509_BT509_5_3_1,Length=0.040008000,Units=km
new line.12412226 bus1=BBT3304422.1.2.3.0,bus2=BBT3304429.1.2.3.0,Phases=3,Linecode=BT509_BT509_5_3_1,Length=0.039796000,Units=km
new line.10575195 bus1=BBT2796432.1.2.3.0,bus2=BBT2796439.1.2.3.0,Phases=3,Linecode=BT810_BT810_4_3_4,Length=0.033229000,Units=km
new line.10575223 bus1=BBT2796439.1.2.3.0,bus2=BBT3470840.1.2.3.0,Phases=3,Linecode=BT810_BT810_4_3_4,Length=0.039444000,Units=km
new line.10575258 bus1=BBT2796488.1.2.0,bus2=BBT2796495.1.2.0,Phases=2,Linecode=BT808_BT808_4_2_3,Length=0.020241000,Units=km
new line.10575300 bus1=BBT2796523.1.2.0,bus2=BBT2796544.1.2.0,Phases=2,Linecode=BT808_BT808_4_2_3,Length=0.020801000,Units=km
new line.10575328 bus1=BBT2796544.1.2.0,bus2=BBT2796551.1.2.0,Phases=2,Linecode=BT808_BT808_4_2_3,Length=0.023844000,Units=km
new line.10575349 bus1=BBT2796551.1.2.0,bus2=BBT2796558.1.2.0,Phases=2,Linecode=BT808_BT808_4_2_3,Length=0.016637000,Units=km
new line.11051293 bus1=BBT2899703.1.2.3.0,bus2=BBT2899710.1.2.3.0,Phases=3,Linecode=BT810_BT810_4_3_4,Length=0.028150000,Units=km
new line.11533061 bus1=BBT3031751.1.2.3.0,bus2=BBT2004438.1.2.3.0,Phases=3,Linecode=BT803_BT803_4_3_4,Length=0.008599000,Units=km
new line.11536519 bus1=BBT3032920.1.2.3.0,bus2=BBT1979840.1.2.3.0,Phases=3,Linecode=BT809_BT809_4_3_4,Length=0.014207000,Units=km
new line.11949540 bus1=BBT3655941.1.2.0,bus2=BBT3655948.1.2.0,Phases=2,Linecode=BT811_BT811_4_2_3,Length=0.024990000,Units=km
new line.11949568 bus1=BBT3148840.1.2.3.0,bus2=BBT3655969.1.2.3.0,Phases=3,Linecode=BT514_BT514_7_3_1,Length=0.000500000,Units=km
new line.12363569 bus1=BBT3286894.1.2.3.0,bus2=BBT2006013.1.2.3.0,Phases=3,Linecode=BT803_BT803_4_3_4,Length=0.036221000,Units=km
new line.12363576 bus1=BBT3286894.1.2.3.0,bus2=BBT2006034.1.2.3.0,Phases=3,Linecode=BT803_BT803_4_3_4,Length=0.006401000,Units=km
new line.12363583 bus1=BBT3286894.1.2.3.0,bus2=BBT2006048.1.2.3.0,Phases=3,Linecode=BT803_BT803_4_3_4,Length=0.021923000,Units=km
new line.12366418 bus1=BBT3288301.1.2.3.0,bus2=BBT3288308.1.2.3.0,Phases=3,Linecode=BT108_BT107_7_3_1,Length=0.018021000,Units=km
new line.12367510 bus1=BBT3288672.1.2.3.0,bus2=BBT3289134.1.2.3.0,Phases=3,Linecode=BT509_BT509_5_3_1,Length=0.021087000,Units=km
new line.12367517 bus1=BBT3288672.1.2.3.0,bus2=BBT3302511.1.2.3.0,Phases=3,Linecode=BT509_BT509_5_3_1,Length=0.017198000,Units=km
new line.12367706 bus1=BBT3288917.2.3.0,bus2=BBT3288924.2.3.0,Phases=2,Linecode=BT507_BT507_5_2_1,Length=0.013148000,Units=km
new line.12367713 bus1=BBT3288917.1.2.0,bus2=BBT3288959.1.2.0,Phases=2,Linecode=BT507_BT507_5_2_1,Length=0.021205000,Units=km
new line.12367804 bus1=BBT3288924.2.3.0,bus2=BBT3288931.2.3.0,Phases=2,Linecode=BT507_BT507_5_2_1,Length=0.029416000,Units=km
new line.12367825 bus1=BBT3288931.2.3.0,bus2=BBT3288938.2.3.0,Phases=2,Linecode=BT507_BT507_5_2_1,Length=0.031562000,Units=km
new line.12367839 bus1=BBT3288938.2.3.0,bus2=BBT3288945.2.3.0,Phases=2,Linecode=BT507_BT507_5_2_1,Length=0.029602000,Units=km
new line.12367853 bus1=BBT3288945.2.3.0,bus2=BBT3288952.2.3.0,Phases=2,Linecode=BT507_BT507_5_2_1,Length=0.030793000,Units=km
new line.12367944 bus1=BBT3288959.1.2.0,bus2=BBT3288966.1.2.0,Phases=2,Linecode=BT507_BT507_5_2_1,Length=0.030598000,Units=km
new line.12367958 bus1=BBT3288966.1.2.0,bus2=BBT3288973.1.2.0,Phases=2,Linecode=BT507_BT507_5_2_1,Length=0.029955000,Units=km
new line.12367979 bus1=BBT3288973.1.2.0,bus2=BBT3288980.1.2.0,Phases=2,Linecode=BT507_BT507_5_2_1,Length=0.027647000,Units=km
new line.12368000 bus1=BBT3288980.1.2.0,bus2=BBT3288987.1.2.0,Phases=2,Linecode=BT507_BT507_5_2_1,Length=0.026162000,Units=km
new line.12368021 bus1=BBT3288987.1.2.0,bus2=BBT3288994.1.2.0,Phases=2,Linecode=BT507_BT507_5_2_1,Length=0.031768000,Units=km
new line.12368035 bus1=BBT3288994.1.2.0,bus2=BBT3289001.1.2.0,Phases=2,Linecode=BT507_BT507_5_2_1,Length=0.029602000,Units=km
new line.12368651 bus1=BBT3289113.1.2.3.0,bus2=BBT3289141.1.2.3.0,Phases=3,Linecode=BT509_BT509_5_3_1,Length=0.023013000,Units=km
new line.12368658 bus1=BBT3289113.1.2.3.0,bus2=BBT3302525.1.2.3.0,Phases=3,Linecode=BT509_BT509_5_3_1,Length=0.014759000,Units=km
new line.12368672 bus1=BBT3289141.1.2.3.0,bus2=BBT3289260.1.2.3.0,Phases=3,Linecode=BT509_BT509_5_3_1,Length=0.005097000,Units=km
new line.12368679 bus1=BBT3289141.1.2.3.0,bus2=BBT3289148.1.2.3.0,Phases=3,Linecode=BT509_BT509_5_3_1,Length=0.044027000,Units=km
new line.12368700 bus1=BBT3289134.1.2.3.0,bus2=BBT3289155.1.2.3.0,Phases=3,Linecode=BT509_BT509_5_3_1,Length=0.044027000,Units=km
new line.12368714 bus1=BBT3289148.1.2.3.0,bus2=BBT3289162.1.2.3.0,Phases=3,Linecode=BT509_BT509_5_3_1,Length=0.037521000,Units=km
new line.12368735 bus1=BBT3289155.1.2.3.0,bus2=BBT3289267.1.2.3.0,Phases=3,Linecode=BT509_BT509_5_3_1,Length=0.005383000,Units=km
new line.12368742 bus1=BBT3289155.1.2.3.0,bus2=BBT3289169.1.2.3.0,Phases=3,Linecode=BT509_BT509_5_3_1,Length=0.038273000,Units=km
new line.12368777 bus1=BBT3289162.1.2.3.0,bus2=BBT3290093.1.2.3.0,Phases=3,Linecode=BT509_BT509_5_3_1,Length=0.004998000,Units=km
new line.12368784 bus1=BBT3289162.1.2.3.0,bus2=BBT3289176.1.2.3.0,Phases=3,Linecode=BT509_BT509_5_3_1,Length=0.048001000,Units=km
new line.12368805 bus1=BBT3289169.1.2.3.0,bus2=BBT3289190.1.2.3.0,Phases=3,Linecode=BT509_BT509_5_3_1,Length=0.049072000,Units=km
new line.12368826 bus1=BBT3289176.1.2.3.0,bus2=BBT3289183.1.2.3.0,Phases=3,Linecode=BT509_BT509_5_3_1,Length=0.043029000,Units=km
new line.12368847 bus1=BBT3289190.1.2.3.0,bus2=BBT3290100.1.2.3.0,Phases=3,Linecode=BT509_BT509_5_3_1,Length=0.004998000,Units=km
new line.12368854 bus1=BBT3289190.1.2.3.0,bus2=BBT3289197.1.2.3.0,Phases=3,Linecode=BT509_BT509_5_3_1,Length=0.041660000,Units=km
new line.12368875 bus1=BBT3289183.1.2.3.0,bus2=BBT3290107.1.2.3.0,Phases=3,Linecode=BT509_BT509_5_3_1,Length=0.005655000,Units=km
new line.12368882 bus1=BBT3289183.1.2.3.0,bus2=BBT3289204.1.2.3.0,Phases=3,Linecode=BT509_BT509_5_3_1,Length=0.046500000,Units=km
new line.12368896 bus1=BBT3289197.1.2.3.0,bus2=BBT3289218.1.2.3.0,Phases=3,Linecode=BT509_BT509_5_3_1,Length=0.046938000,Units=km
new line.12368924 bus1=BBT3289204.1.2.3.0,bus2=BBT3289211.1.2.3.0,Phases=3,Linecode=BT509_BT509_5_3_1,Length=0.046122000,Units=km
new line.12368945 bus1=BBT3289218.1.2.3.0,bus2=BBT3290121.1.2.3.0,Phases=3,Linecode=BT509_BT509_5_3_1,Length=0.005998000,Units=km
new line.12368952 bus1=BBT3289218.1.2.3.0,bus2=BBT3289225.1.2.3.0,Phases=3,Linecode=BT509_BT509_5_3_1,Length=0.046510000,Units=km
new line.12368966 bus1=BBT3289225.1.2.3.0,bus2=BBT3289246.1.2.3.0,Phases=3,Linecode=BT509_BT509_5_3_1,Length=0.043811000,Units=km
new line.12369001 bus1=BBT3289211.1.2.3.0,bus2=BBT3291087.1.2.3.0,Phases=3,Linecode=BT509_BT509_5_3_1,Length=0.005655000,Units=km
new line.12369008 bus1=BBT3289211.1.2.3.0,bus2=BBT3289232.1.2.3.0,Phases=3,Linecode=BT509_BT509_5_3_1,Length=0.043811000,Units=km
new line.12369029 bus1=BBT3289232.1.2.3.0,bus2=BBT3289239.1.2.3.0,Phases=3,Linecode=BT509_BT509_5_3_1,Length=0.047394000,Units=km
new line.12369043 bus1=BBT3289246.1.2.3.0,bus2=BBT3291094.1.2.3.0,Phases=3,Linecode=BT509_BT509_5_3_1,Length=0.006081000,Units=km
new line.12369050 bus1=BBT3289246.1.2.3.0,bus2=BBT3289253.1.2.3.0,Phases=3,Linecode=BT509_BT509_5_3_1,Length=0.046510000,Units=km
new line.12369064 bus1=BBT3289239.1.2.3.0,bus2=BBT3291101.1.2.3.0,Phases=3,Linecode=BT509_BT509_5_3_1,Length=0.004471000,Units=km
new line.12370079 bus1=BBT3289589.1.2.3.0,bus2=BBT3289617.1.2.3.0,Phases=3,Linecode=BT507_BT507_5_3_1,Length=0.004122000,Units=km
new line.12370086 bus1=BBT3289589.1.2.3.0,bus2=BBT3289610.1.2.3.0,Phases=3,Linecode=BT507_BT507_5_3_1,Length=0.038894000,Units=km
new line.12370093 bus1=BBT3289589.1.2.3.0,bus2=BBT3289806.1.2.3.0,Phases=3,Linecode=BT509_BT509_5_3_1,Length=0.044276000,Units=km
new line.12370114 bus1=BBT3289596.1.2.3.0,bus2=BBT3289603.1.2.3.0,Phases=3,Linecode=BT507_BT507_5_3_1,Length=0.039341000,Units=km
new line.12370121 bus1=BBT3289596.1.2.3.0,bus2=BBT3289799.1.2.3.0,Phases=3,Linecode=BT509_BT509_5_3_1,Length=0.042924000,Units=km
new line.12370142 bus1=BBT3289610.1.2.3.0,bus2=BBT3289624.1.2.3.0,Phases=3,Linecode=BT507_BT507_5_3_1,Length=0.044276000,Units=km
new line.12370163 bus1=BBT3289603.1.2.3.0,bus2=BBT3289638.1.2.3.0,Phases=3,Linecode=BT507_BT507_5_3_1,Length=0.004122000,Units=km
new line.12370170 bus1=BBT3289603.1.2.3.0,bus2=BBT3289631.1.2.3.0,Phases=3,Linecode=BT507_BT507_5_3_1,Length=0.045159000,Units=km
new line.12370191 bus1=BBT3289624.1.2.3.0,bus2=BBT3289645.1.2.3.0,Phases=3,Linecode=BT507_BT507_5_3_1,Length=0.004471000,Units=km
new line.12370198 bus1=BBT3289624.1.2.3.0,bus2=BBT3289666.1.2.3.0,Phases=3,Linecode=BT507_BT507_5_3_1,Length=0.043811000,Units=km
new line.12370212 bus1=BBT3289631.1.2.3.0,bus2=BBT3289652.1.2.3.0,Phases=3,Linecode=BT507_BT507_5_3_1,Length=0.043811000,Units=km
new line.12370226 bus1=BBT3289666.1.2.3.0,bus2=BBT3289673.1.2.3.0,Phases=3,Linecode=BT507_BT507_5_3_1,Length=0.042042000,Units=km
new line.12370240 bus1=BBT3289652.1.2.3.0,bus2=BBT3289659.1.2.3.0,Phases=3,Linecode=BT507_BT507_5_3_1,Length=0.004471000,Units=km
new line.12370247 bus1=BBT3289652.1.2.3.0,bus2=BBT3289687.1.2.3.0,Phases=3,Linecode=BT507_BT507_5_3_1,Length=0.042042000,Units=km
new line.12370261 bus1=BBT3289673.1.2.3.0,bus2=BBT3289680.1.2.3.0,Phases=3,Linecode=BT507_BT507_5_3_1,Length=0.004471000,Units=km
new line.12370268 bus1=BBT3289673.1.2.3.0,bus2=BBT3289708.1.2.3.0,Phases=3,Linecode=BT506_BT506_5_3_1,Length=0.043811000,Units=km
new line.12370282 bus1=BBT3289687.1.2.3.0,bus2=BBT3289694.1.2.3.0,Phases=3,Linecode=BT506_BT506_5_3_1,Length=0.043811000,Units=km
new line.12370296 bus1=BBT3289708.1.2.0,bus2=BBT3289715.1.2.0,Phases=2,Linecode=BT506_BT506_5_2_1,Length=0.036221000,Units=km
new line.12370310 bus1=BBT3289694.1.2.3.0,bus2=BBT3289701.1.2.3.0,Phases=3,Linecode=BT506_BT506_5_3_1,Length=0.004471000,Units=km
new line.12370317 bus1=BBT3289694.1.2.0,bus2=BBT3289729.1.2.0,Phases=2,Linecode=BT506_BT506_5_2_1,Length=0.035341000,Units=km
new line.12370331 bus1=BBT3289715.1.2.0,bus2=BBT3289722.1.2.0,Phases=2,Linecode=BT506_BT506_5_2_1,Length=0.004122000,Units=km
new line.12370541 bus1=BBT3289946.2.3.0,bus2=BBT3289953.2.3.0,Phases=2,Linecode=BT506_BT506_5_2_1,Length=0.004122000,Units=km
new line.12370555 bus1=BBT3289925.1.2.3.0,bus2=BBT3289932.1.2.3.0,Phases=3,Linecode=BT506_BT506_5_3_1,Length=0.004471000,Units=km
new line.12370562 bus1=BBT3289925.2.3.0,bus2=BBT3289960.2.3.0,Phases=2,Linecode=BT506_BT506_5_2_1,Length=0.045159000,Units=km
new line.12370576 bus1=BBT3289939.2.3.0,bus2=BBT3289946.2.3.0,Phases=2,Linecode=BT506_BT506_5_2_1,Length=0.046046000,Units=km
new line.12370590 bus1=BBT3289918.1.2.3.0,bus2=BBT3289925.1.2.3.0,Phases=3,Linecode=BT506_BT506_5_3_1,Length=0.040690000,Units=km
new line.12370611 bus1=BBT3289904.1.2.3.0,bus2=BBT3289911.1.2.3.0,Phases=3,Linecode=BT507_BT507_5_3_1,Length=0.004471000,Units=km
new line.12370618 bus1=BBT3289904.1.2.3.0,bus2=BBT3289939.1.2.3.0,Phases=3,Linecode=BT506_BT506_5_3_1,Length=0.040690000,Units=km
new line.12370639 bus1=BBT3289883.1.2.3.0,bus2=BBT3289890.1.2.3.0,Phases=3,Linecode=BT507_BT507_5_3_1,Length=0.004471000,Units=km
new line.12370646 bus1=BBT3289883.1.2.3.0,bus2=BBT3289918.1.2.3.0,Phases=3,Linecode=BT507_BT507_5_3_1,Length=0.042924000,Units=km
new line.12370660 bus1=BBT3289897.1.2.3.0,bus2=BBT3289904.1.2.3.0,Phases=3,Linecode=BT507_BT507_5_3_1,Length=0.042924000,Units=km
new line.12370681 bus1=BBT3289876.1.2.3.0,bus2=BBT3289883.1.2.3.0,Phases=3,Linecode=BT507_BT507_5_3_1,Length=0.042468000,Units=km
new line.12370709 bus1=BBT3289862.1.2.3.0,bus2=BBT3289869.1.2.3.0,Phases=3,Linecode=BT509_BT509_5_3_1,Length=0.004471000,Units=km
new line.12370716 bus1=BBT3289862.1.2.3.0,bus2=BBT3289897.1.2.3.0,Phases=3,Linecode=BT507_BT507_5_3_1,Length=0.042468000,Units=km
new line.12370737 bus1=BBT3289820.1.2.3.0,bus2=BBT3289827.1.2.3.0,Phases=3,Linecode=BT509_BT509_5_3_1,Length=0.004471000,Units=km
new line.12370744 bus1=BBT3289820.1.2.3.0,bus2=BBT3289876.1.2.3.0,Phases=3,Linecode=BT509_BT509_5_3_1,Length=0.043811000,Units=km
new line.12370765 bus1=BBT3289834.1.2.3.0,bus2=BBT3289862.1.2.3.0,Phases=3,Linecode=BT509_BT509_5_3_1,Length=0.043811000,Units=km
new line.12370793 bus1=BBT3289806.1.2.3.0,bus2=BBT3289820.1.2.3.0,Phases=3,Linecode=BT509_BT509_5_3_1,Length=0.043811000,Units=km
new line.12370807 bus1=BBT3289799.1.2.3.0,bus2=BBT3289813.1.2.3.0,Phases=3,Linecode=BT509_BT509_5_3_1,Length=0.004471000,Units=km
new line.12370814 bus1=BBT3289799.1.2.3.0,bus2=BBT3289834.1.2.3.0,Phases=3,Linecode=BT509_BT509_5_3_1,Length=0.043811000,Units=km
new line.12371171 bus1=BBT3290002.2.3.0,bus2=BBT3290009.2.3.0,Phases=2,Linecode=BT506_BT506_5_2_1,Length=0.025544000,Units=km
new line.12371220 bus1=BBT3290044.1.2.3.0,bus2=BBT3290051.1.2.3.0,Phases=3,Linecode=BT509_BT509_5_3_1,Length=0.025169000,Units=km
new line.12371234 bus1=BBT3290051.1.2.3.0,bus2=BBT3290058.1.2.3.0,Phases=3,Linecode=BT509_BT509_5_3_1,Length=0.011176000,Units=km
new line.12371255 bus1=BBT3290058.1.2.3.0,bus2=BBT3290065.1.2.3.0,Phases=3,Linecode=BT509_BT509_5_3_1,Length=0.011397000,Units=km
new line.12371283 bus1=BBT3290065.1.2.3.0,bus2=BBT3290079.1.2.3.0,Phases=3,Linecode=BT509_BT509_5_3_1,Length=0.038881000,Units=km
new line.12371290 bus1=BBT3290065.1.2.3.0,bus2=BBT3290072.1.2.3.0,Phases=3,Linecode=BT509_BT509_5_3_1,Length=0.040295000,Units=km
new line.12371493 bus1=BBT3290128.1.2.0,bus2=BBT3292186.1.2.0,Phases=2,Linecode=BT521_BT521_5_2_1,Length=0.026897000,Units=km
new line.12371500 bus1=BBT3290128.1.2.3.0,bus2=BBT3290219.1.2.3.0,Phases=3,Linecode=BT521_BT521_5_3_1,Length=0.032236000,Units=km
new line.12371521 bus1=BBT3290212.1.2.3.0,bus2=BBT3290226.1.2.3.0,Phases=3,Linecode=BT521_BT521_5_3_1,Length=0.032236000,Units=km
new line.12371556 bus1=BBT3290226.1.2.3.0,bus2=BBT3290233.1.2.3.0,Phases=3,Linecode=BT521_BT521_5_3_1,Length=0.018432000,Units=km
new line.12371584 bus1=BBT3290240.1.2.3.0,bus2=BBT3290247.1.2.3.0,Phases=3,Linecode=BT521_BT521_5_3_1,Length=0.012037000,Units=km
new line.12371591 bus1=BBT3290240.1.2.3.0,bus2=BBT3290254.1.2.3.0,Phases=3,Linecode=BT521_BT521_5_3_1,Length=0.051088000,Units=km
new line.12371598 bus1=BBT3290240.1.2.3.0,bus2=BBT3320116.1.2.3.0,Phases=3,Linecode=BT509_BT509_5_3_1,Length=0.033528000,Units=km
new line.12371619 bus1=BBT3290233.1.2.3.0,bus2=BBT3290261.1.2.3.0,Phases=3,Linecode=BT521_BT521_5_3_1,Length=0.051458000,Units=km
new line.12371787 bus1=BBT3292144.1.2.0,bus2=BBT3292151.1.2.0,Phases=2,Linecode=BT504_BT504_5_2_1,Length=0.045292000,Units=km
new line.12371808 bus1=BBT3292137.1.2.0,bus2=BBT3292144.1.2.0,Phases=2,Linecode=BT506_BT506_5_2_1,Length=0.034163000,Units=km
new line.12371836 bus1=BBT3292130.1.2.0,bus2=BBT3292137.1.2.0,Phases=2,Linecode=BT506_BT506_5_2_1,Length=0.022838000,Units=km
new line.12371843 bus1=BBT3292130.1.2.0,bus2=BBT3292158.1.2.0,Phases=2,Linecode=BT519_BT519_5_2_1,Length=0.018594000,Units=km
new line.12371864 bus1=BBT3292123.1.2.0,bus2=BBT3292130.1.2.0,Phases=2,Linecode=BT506_BT506_5_2_1,Length=0.044704000,Units=km
new line.12371885 bus1=BBT3292116.1.2.0,bus2=BBT3292123.1.2.0,Phases=2,Linecode=BT506_BT506_5_2_1,Length=0.046079000,Units=km