new load.3005565923M1 bus1=RML202522703.1.2.3.0,Phases=3,kv=0.22,kW=0.1682,pf=0.92,Vminpu=0.92,Vmaxpu=1.5,model=1,daily=RES1_1,status=variable
new load.3004809668M1 bus1=RML206643498.1.2.0,Phases=2,kv=0.24,kW=2.26982,pf=0.92,Vminpu=0.92,Vmaxpu=1.5,model=1,daily=RUR1_17,status=variable
new load.3006725938M1 bus1=RML206988241.1.2.0,Phases=2,kv=0.22,kW=0.5417,pf=0.92,Vminpu=0.92,Vmaxpu=1.5,model=1,daily=RES3_18,status=variable
new load.3007633173M1 bus1=RML207501404.1.2.0,Phases=2,kv=0.22,kW=1.63872,pf=0.92,Vminpu=0.92,Vmaxpu=1.5,model=1,daily=RES1_17,status=variable
new load.3007585422M1 bus1=RML207463198.1.0,Phases=1,kv=0.12,kW=0.67378,pf=0.92,Vminpu=0.92,Vmaxpu=1.5,model=1,daily=RES1_15,status=variable
new load.3006186788M1 bus1=RML206622106.1.2.0,Phases=2,kv=0.24,kW=1.16196,pf=0.92,Vminpu=0.92,Vmaxpu=1.5,model=1,daily=RES2_19,status=variable
new load.3010826423M1 bus1=RML208401044.1.0,Phases=1,kv=0.12,kW=0.30236,pf=0.92,Vminpu=0.92,Vmaxpu=1.5,model=1,daily=RES2_5,status=variable
new load.3004119262M1 bus1=RML202535982.2.0,Phases=1,kv=0.127,kW=0.86068,pf=0.92,Vminpu=0.92,Vmaxpu=1.5,model=1,daily=RES1_16,status=variable
new load.3004708584M1 bus1=RML202536010.1.2.0,Phases=2,kv=0.24,kW=1.0861,pf=0.92,Vminpu=0.92,Vmaxpu=1.5,model=1,daily=RES2_4,status=variable
new load.3004166748M1 bus1=RML202541106.1.2.0,Phases=2,kv=0.24,kW=1.05448,pf=0.92,Vminpu=0.92,Vmaxpu=1.5,model=1,daily=RES1_11,status=variable
new load.3006773130M1 bus1=RML207054853.1.2.0,Phases=2,kv=0.24,kW=0.52282,pf=0.92,Vminpu=0.92,Vmaxpu=1.5,model=1,daily=RES1_12,status=variable
new load.3004755769M1 bus1=RML202541134.1.2.0,Phases=2,kv=0.24,kW=2.68216,pf=0.92,Vminpu=0.92,Vmaxpu=1.5,model=1,daily=RES2_13,status=variable
new load.3006054504M1 bus1=RML206287793.2.0,Phases=1,kv=0.12,kW=0.0067,pf=0.92,Vminpu=0.92,Vmaxpu=1.5,model=1,daily=RUR1_1,status=variable
new load.3010643285M1 bus1=RML208061607.1.2.0,Phases=2,kv=0.24,kW=0.4307,pf=0.92,Vminpu=0.92,Vmaxpu=1.5,model=1,daily=RES1_23,status=variable
new load.3011199123M1 bus1=RML210058763.1.2.0,Phases=2,kv=0.24,kW=3.86498,pf=0.92,Vminpu=0.92,Vmaxpu=1.5,model=1,daily=RES2_2,status=variable
new load.3003690817M1 bus1=RML206642539.1.2.3.0,Phases=3,kv=0.22,kW=82.87502,pf=0.92,Vminpu=0.92,Vmaxpu=1.5,model=1,daily=COM4_18,status=variable
new load.3005428532M1 bus1=RML202553181.1.0,Phases=1,kv=0.127,kW=0.44836,pf=0.92,Vminpu=0.92,Vmaxpu=1.5,model=1,daily=RES1_3,status=variable
new load.3005479481M1 bus1=RML202553146.1.3.0,Phases=2,kv=0.22,kW=0.58252,pf=0.92,Vminpu=0.92,Vmaxpu=1.5,model=1,daily=COM1_16,status=variable
new load.3007076985M1 bus1=RML207155338.1.2.3.0,Phases=3,kv=0.22,kW=0.84702,pf=0.92,Vminpu=0.92,Vmaxpu=1.5,model=1,daily=COM1_22,status=variable
new load.3007079197M1 bus1=RML207155324.2.3.0,Phases=2,kv=0.22,kW=0.01186,pf=0.92,Vminpu=0.92,Vmaxpu=1.5,model=1,daily=RES1_6,status=variable
new load.3011564328M1 bus1=RML209588965.3.0,Phases=1,kv=0.127,kW=0.02946,pf=0.92,Vminpu=0.92,Vmaxpu=1.5,model=1,daily=RES1_2,status=variable
new load.3011854384M1 bus1=RML210246618.1.2.3.0,Phases=3,kv=0.22,kW=1.03768,pf=0.92,Vminpu=0.92,Vmaxpu=1.5,model=1,daily=COM1_10,status=variable
new load.3010291080M1 bus1=RML207745319.3.0,Phases=1,kv=0.127,kW=0.12894,pf=0.92,Vminpu=0.92,Vmaxpu=1.5,model=1,daily=RES1_18,status=variable
new load.3010134298M1 bus1=RML207663027.1.0,Phases=1,kv=0.127,kW=0.57818,pf=0.92,Vminpu=0.92,Vmaxpu=1.5,model=1,daily=RES1_1,status=variable
new load.3011301723M1 bus1=RML209013012.1.2.0,Phases=2,kv=0.22,kW=0.8641,pf=0.92,Vminpu=0.92,Vmaxpu=1.5,model=1,daily=RES1_2,status=variable
new load.3006604897M1 bus1=RML206889128.1.0,Phases=1,kv=0.127,kW=0.49422,pf=0.92,Vminpu=0.92,Vmaxpu=1.5,model=1,daily=RES2_27,status=variable
new load.3005120518M1 bus1=RML202554497.1.0,Phases=1,kv=0.127,kW=1.49016,pf=0.92,Vminpu=0.92,Vmaxpu=1.5,model=1,daily=RES2_8,status=variable
new load.3005611380M1 bus1=RML202554476.2.0,Phases=1,kv=0.127,kW=1.17736,pf=0.92,Vminpu=0.92,Vmaxpu=1.5,model=1,daily=RES1_1,status=variable
new load.3002533644M1 bus1=RML202560356.1.0,Phases=1,kv=0.127,kW=2.33878,pf=0.92,Vminpu=0.92,Vmaxpu=1.5,model=1,daily=RES4_11,status=variable
new load.3002533645M1 bus1=RML202560237.1.0,Phases=1,kv=0.127,kW=0.17918,pf=0.92,Vminpu=0.92,Vmaxpu=1.5,model=1,daily=RES2_5,status=variable
new load.3002533647M1 bus1=RML202560216.1.0,Phases=1,kv=0.127,kW=1.00784,pf=0.92,Vminpu=0.92,Vmaxpu=1.5,model=1,daily=RES2_5,status=variable
new load.3002533648M1 bus1=RML202560090.1.2.0,Phases=2,kv=0.22,kW=0.50142,pf=0.92,Vminpu=0.92,Vmaxpu=1.5,model=1,daily=RES1_23,status=variable
new load.3002533649M1 bus1=RML202560104.1.2.0,Phases=2,kv=0.22,kW=0.52884,pf=0.92,Vminpu=0.92,Vmaxpu=1.5,model=1,daily=RES1_3,status=variable
new load.3002533650M1 bus1=RML202560027.1.0,Phases=1,kv=0.127,kW=1.53784,pf=0.92,Vminpu=0.92,Vmaxpu=1.5,model=1,daily=RES2_4,status=variable
new load.3002533651M1 bus1=RML202560013.2.0,Phases=1,kv=0.127,kW=0.4227,pf=0.92,Vminpu=0.92,Vmaxpu=1.5,model=1,daily=RES2_26,status=variable
new load.3002533652M1 bus1=RML202559999.3.0,Phases=1,kv=0.127,kW=1.25254,pf=0.92,Vminpu=0.92,Vmaxpu=1.5,model=1,daily=RES2_2,status=variable
new load.3002533653M1 bus1=RML202559985.1.2.3.0,Phases=3,kv=0.22,kW=0.16192,pf=0.92,Vminpu=0.92,Vmaxpu=1.5,model=1,daily=RES1_18,status=variable
new load.3002533654M1 bus1=RML202559929.2.0,Phases=1,kv=0.127,kW=0.5758,pf=0.92,Vminpu=0.92,Vmaxpu=1.5,model=1,daily=RES1_25,status=variable
new load.3002533655M1 bus1=RML202559943.3.0,Phases=1,kv=0.127,kW=0.3928,pf=0.92,Vminpu=0.92,Vmaxpu=1.5,model=1,daily=RES1_18,status=variable
new load.3002533656M1 bus1=RML202559957.1.0,Phases=1,kv=0.127,kW=1.981,pf=0.92,Vminpu=0.92,Vmaxpu=1.5,model=1,daily=RES3_4,status=variable
new load.3002533657M1 bus1=RML202560083.2.0,Phases=1,kv=0.127,kW=1.07096,pf=0.92,Vminpu=0.92,Vmaxpu=1.5,model=1,daily=RES1_21,status=variable
new load.3002533658M1 bus1=RML202560076.2.0,Phases=1,kv=0.127,kW=0.94884,pf=0.92,Vminpu=0.92,Vmaxpu=1.5,model=1,daily=RES1_24,status=variable
new load.3002533659M1 bus1=RML202560062.2.3.0,Phases=2,kv=0.22,kW=2.13484,pf=0.92,Vminpu=0.92,Vmaxpu=1.5,model=1,daily=RES4_11,status=variable
new load.3002533661M1 bus1=RML202560300.2.0,Phases=1,kv=0.127,kW=0.56356,pf=0.92,Vminpu=0.92,Vmaxpu=1.5,model=1,daily=RES3_19,status=variable
new load.3002533662M1 bus1=RML202560293.2.0,Phases=1,kv=0.127,kW=0.93232,pf=0.92,Vminpu=0.92,Vmaxpu=1.5,model=1,daily=RES2_4,status=variable
new load.3002533663M1 bus1=RML202560279.1.0,Phases=1,kv=0.127,kW=0.16494,pf=0.92,Vminpu=0.92,Vmaxpu=1.5,model=1,daily=RES2_28,status=variable
new load.3002533664M1 bus1=RML202560321.2.0,Phases=1,kv=0.127,kW=0.06896,pf=0.92,Vminpu=0.92,Vmaxpu=1.5,model=1,daily=RES1_18,status=variable
new load.3002533665M1 bus1=RML202560265.3.0,Phases=1,kv=0.127,kW=1.73514,pf=0.92,Vminpu=0.92,Vmaxpu=1.5,model=1,daily=RES2_11,status=variable
new load.3002533666M1 bus1=RML202560258.3.0,Phases=1,kv=0.127,kW=0.3629,pf=0.92,Vminpu=0.92,Vmaxpu=1.5,model=1,daily=RES2_27,status=variable
new load.3002533667M1 bus1=RML202560244.2.0,Phases=1,kv=0.127,kW=1.10532,pf=0.92,Vminpu=0.92,Vmaxpu=1.5,model=1,daily=RES2_4,status=variable
new load.3002533669M1 bus1=RML202560167.1.0,Phases=1,kv=0.127,kW=0.44432,pf=0.92,Vminpu=0.92,Vmaxpu=1.5,model=1,daily=RES3_18,status=variable
new load.3002533670M1 bus1=RML202560146.2.3.0,Phases=2,kv=0.22,kW=1.58262,pf=0.92,Vminpu=0.92,Vmaxpu=1.5,model=1,daily=RES1_13,status=variable
new load.3002533848M1 bus1=RML202560153.1.0,Phases=1,kv=0.127,kW=0.68308,pf=0.92,Vminpu=0.92,Vmaxpu=1.5,model=1,daily=RES2_5,status=variable
new load.3002533849M1 bus1=RML202560251.1.3.0,Phases=2,kv=0.22,kW=2.09668,pf=0.92,Vminpu=0.92,Vmaxpu=1.5,model=1,daily=RES3_3,status=variable
new load.3002533850M1 bus1=RML202560335.1.2.3.0,Phases=3,kv=0.22,kW=0.39556,pf=0.92,Vminpu=0.92,Vmaxpu=1.5,model=1,daily=RES2_16,status=variable
new load.3002533851M1 bus1=RML202560328.1.2.3.0,Phases=3,kv=0.22,kW=0.534,pf=0.92,Vminpu=0.92,Vmaxpu=1.5,model=1,daily=RES1_6,status=variable
new load.3002533865M1 bus1=RML202560384.2.0,Phases=1,kv=0.127,kW=0.45576,pf=0.92,Vminpu=0.92,Vmaxpu=1.5,model=1,daily=RES1_18,status=variable
new load.3002533866M1 bus1=RML202560349.2.0,Phases=1,kv=0.127,kW=1.54162,pf=0.92,Vminpu=0.92,Vmaxpu=1.5,model=1,daily=RES1_2,status=variable
new load.3002533867M1 bus1=RML202560342.1.0,Phases=1,kv=0.127,kW=0.63008,pf=0.92,Vminpu=0.92,Vmaxpu=1.5,model=1,daily=RES2_18,status=variable
new load.3002533868M1 bus1=RML202560272.1.0,Phases=1,kv=0.127,kW=0.54224,pf=0.92,Vminpu=0.92,Vmaxpu=1.5,model=1,daily=RES2_11,status=variable
new load.3002533869M1 bus1=RML202560286.1.0,Phases=1,kv=0.127,kW=0.442,pf=0.92,Vminpu=0.92,Vmaxpu=1.5,model=1,daily=RES2_18,status=variable
new load.3002533870M1 bus1=RML202560132.3.0,Phases=1,kv=0.127,kW=1.08888,pf=0.92,Vminpu=0.92,Vmaxpu=1.5,model=1,daily=RES2_7,status=variable
new load.3002533871M1 bus1=RML202560174.2.0,Phases=1,kv=0.127,kW=0.25068,pf=0.92,Vminpu=0.92,Vmaxpu=1.5,model=1,daily=RES2_27,status=variable
new load.3002533872M1 bus1=RML202560188.1.0,Phases=1,kv=0.127,kW=0.54424,pf=0.92,Vminpu=0.92,Vmaxpu=1.5,model=1,daily=RES3_19,status=variable
new load.3002533873M1 bus1=RML202560202.3.0,Phases=1,kv=0.127,kW=0.0781,pf=0.92,Vminpu=0.92,Vmaxpu=1.5,model=1,daily=RES1_7,status=variable
new load.3002533953M1 bus1=RML202564857.1.2.3.0,Phases=3,kv=0.22,kW=2.42284,pf=0.92,Vminpu=0.92,Vmaxpu=1.5,model=1,daily=RES3_13,status=variable
new load.3002533954M1 bus1=RML202564850.1.2.0,Phases=2,kv=0.22,kW=3.11956,pf=0.92,Vminpu=0.92,Vmaxpu=1.5,model=1,daily=RES2_12,status=variable
new load.3005165321M1 bus1=RML202564990.1.2.3.0,Phases=3,kv=0.22,kW=9.6788,pf=0.92,Vminpu=0.92,Vmaxpu=1.5,model=1,daily=COM3_21,status=variable
new load.3006282363M1 bus1=RML206613762.1.2.3.0,Phases=3,kv=0.22,kW=1.0953,pf=0.92,Vminpu=0.92,Vmaxpu=1.5,model=1,daily=COM1_15,status=variable
new load.3012191957M1 bus1=RML210153096.3.0,Phases=1,kv=0.127,kW=12.45884,pf=0.92,Vminpu=0.92,Vmaxpu=1.5,model=1,daily=RES1_16,status=variable
new load.3002533811M1 bus1=RML202567097.1.2.0,Phases=2,kv=0.24,kW=0.88876,pf=0.92,Vminpu=0.92,Vmaxpu=1.5,model=1,daily=RES2_1,status=variable
new load.3002533812M1 bus1=RML202567146.2.0,Phases=1,kv=0.12,kW=0.99788,pf=0.92,Vminpu=0.92,Vmaxpu=1.5,model=1,daily=RES1_7,status=variable
new load.3002533814M1 bus1=RML202567118.2.0,Phases=1,kv=0.12,kW=0.50078,pf=0.92,Vminpu=0.92,Vmaxpu=1.5,model=1,daily=RES1_2,status=variable
new load.3002533853M1 bus1=RML202566810.1.2.0,Phases=2,kv=0.24,kW=0.3755,pf=0.92,Vminpu=0.92,Vmaxpu=1.5,model=1,daily=RES2_17,status=variable
new load.3002533854M1 bus1=RML202566880.2.0,Phases=1,kv=0.12,kW=0.76174,pf=0.92,Vminpu=0.92,Vmaxpu=1.5,model=1,daily=RES2_18,status=variable
new load.3002533855M1 bus1=RML202566887.1.2.0,Phases=2,kv=0.24,kW=0.89408,pf=0.92,Vminpu=0.92,Vmaxpu=1.5,model=1,daily=RES1_8,status=variable
new load.3002533856M1 bus1=RML202566873.1.2.0,Phases=2,kv=0.24,kW=0.92536,pf=0.92,Vminpu=0.92,Vmaxpu=1.5,model=1,daily=RES3_13,status=variable
new load.3002533857M1 bus1=RML202566915.2.0,Phases=1,kv=0.12,kW=1.7674,pf=0.92,Vminpu=0.92,Vmaxpu=1.5,model=1,daily=RES2_12,status=variable
new load.3002533858M1 bus1=RML202566908.1.0,Phases=1,kv=0.12,kW=0.34782,pf=0.92,Vminpu=0.92,Vmaxpu=1.5,model=1,daily=RES1_18,status=variable
new load.3002533859M1 bus1=RML202566901.2.0,Phases=1,kv=0.12,kW=0.84494,pf=0.92,Vminpu=0.92,Vmaxpu=1.5,model=1,daily=RES1_5,status=variable
new load.3002533837M1 bus1=RML202566999.1.0,Phases=1,kv=0.12,kW=1.2725,pf=0.92,Vminpu=0.92,Vmaxpu=1.5,model=1,daily=RES2_10,status=variable
new load.3002533838M1 bus1=RML202566985.1.0,Phases=1,kv=0.12,kW=0.99458,pf=0.92,Vminpu=0.92,Vmaxpu=1.5,model=1,daily=RES2_6,status=variable
new load.3002533839M1 bus1=RML202566971.1.2.0,Phases=2,kv=0.24,kW=0.21804,pf=0.92,Vminpu=0.92,Vmaxpu=1.5,model=1,daily=RES1_4,status=variable
new load.3002533840M1 bus1=RML202566957.2.0,Phases=1,kv=0.12,kW=0.6215,pf=0.92,Vminpu=0.92,Vmaxpu=1.5,model=1,daily=RES2_5,status=variable
new load.3002533841M1 bus1=RML202566943.2.0,Phases=1,kv=0.12,kW=0.11694,pf=0.92,Vminpu=0.92,Vmaxpu=1.5,model=1,daily=RES1_18,status=variable
new load.3002533842M1 bus1=RML202566950.1.0,Phases=1,kv=0.12,kW=0.60482,pf=0.92,Vminpu=0.92,Vmaxpu=1.5,model=1,daily=RES1_8,status=variable
new load.3002533843M1 bus1=RML202566831.1.0,Phases=1,kv=0.12,kW=0.76078,pf=0.92,Vminpu=0.92,Vmaxpu=1.5,model=1,daily=RES2_15,status=variable
new load.3002533844M1 bus1=RML202566845.1.0,Phases=1,kv=0.12,kW=1.47288,pf=0.92,Vminpu=0.92,Vmaxpu=1.5,model=1,daily=RES3_6,status=variable
new load.3002533845M1 bus1=RML202566859.1.0,Phases=1,kv=0.12,kW=1.52792,pf=0.92,Vminpu=0.92,Vmaxpu=1.5,model=1,daily=RES3_15,status=variable
new load.3002533847M1 bus1=RML202566789.2.0,Phases=1,kv=0.12,kW=0.50614,pf=0.92,Vminpu=0.92,Vmaxpu=1.5,model=1,daily=RES2_27,status=variable
new load.3002533819M1 bus1=RML202567111.2.0,Phases=1,kv=0.12,kW=2.95234,pf=0.92,Vminpu=0.92,Vmaxpu=1.5,model=1,daily=RES2_14,status=variable
new load.3002533820M1 bus1=RML202567125.1.2.0,Phases=2,kv=0.24,kW=0.86226,pf=0.92,Vminpu=0.92,Vmaxpu=1.5,model=1,daily=RES2_5,status=variable
new load.3002533821M1 bus1=RML202567139.2.0,Phases=1,kv=0.12,kW=1.80254,pf=0.92,Vminpu=0.92,Vmaxpu=1.5,model=1,daily=RES3_3,status=variable
new load.3002533822M1 bus1=RML202567090.2.0,Phases=1,kv=0.12,kW=0.81318,pf=0.92,Vminpu=0.92,Vmaxpu=1.5,model=1,daily=RES2_6,status=variable
new load.3002533823M1 bus1=RML202567104.1.0,Phases=1,kv=0.12,kW=1.34512,pf=0.92,Vminpu=0.92,Vmaxpu=1.5,model=1,daily=RES3_4,status=variable
new load.3002533824M1 bus1=RML202567083.1.0,Phases=1,kv=0.12,kW=1.5548,pf=0.92,Vminpu=0.92,Vmaxpu=1.5,model=1,daily=RES4_3,status=variable
new load.3002533825M1 bus1=RML202567020.1.0,Phases=1,kv=0.12,kW=1.24586,pf=0.92,Vminpu=0.92,Vmaxpu=1.5,model=1,daily=RES2_10,status=variable
new load.3002533826M1 bus1=RML202567034.2.0,Phases=1,kv=0.12,kW=0.13644,pf=0.92,Vminpu=0.92,Vmaxpu=1.5,model=1,daily=RES1_16,status=variable
new load.3002533827M1 bus1=RML202566929.1.0,Phases=1,kv=0.12,kW=1.11274,pf=0.92,Vminpu=0.92,Vmaxpu=1.5,model=1,daily=RES2_21,status=variable
new load.3002533828M1 bus1=RML202566936.1.0,Phases=1,kv=0.12,kW=0.8382,pf=0.92,Vminpu=0.92,Vmaxpu=1.5,model=1,daily=RES2_6,status=variable
new load.3002533829M1 bus1=RML202566964.1.0,Phases=1,kv=0.12,kW=0.88374,pf=0.92,Vminpu=0.92,Vmaxpu=1.5,model=1,daily=RES1_2,status=variable
new load.3002533830M1 bus1=RML202566978.1.2.0,Phases=2,kv=0.24,kW=1.11548,pf=0.92,Vminpu=0.92,Vmaxpu=1.5,model=1,daily=RES1_6,status=variable
new load.3002533831M1 bus1=RML202566992.2.0,Phases=1,kv=0.12,kW=1.86954,pf=0.92,Vminpu=0.92,Vmaxpu=1.5,model=1,daily=RES3_7,status=variable
new load.3002533832M1 bus1=RML202567006.2.0,Phases=1,kv=0.12,kW=1.5304,pf=0.92,Vminpu=0.92,Vmaxpu=1.5,model=1,daily=RES2_15,status=variable
new load.3002533671M1 bus1=RML202566775.2.0,Phases=1,kv=0.12,kW=0.88258,pf=0.92,Vminpu=0.92,Vmaxpu=1.5,model=1,daily=RES2_1,status=variable
new load.3002533672M1 bus1=RML202566782.1.0,Phases=1,kv=0.12,kW=2.24838,pf=0.92,Vminpu=0.92,Vmaxpu=1.5,model=1,daily=RES1_8,status=variable
new load.3002533673M1 bus1=RML202566796.1.0,Phases=1,kv=0.12,kW=1.12804,pf=0.92,Vminpu=0.92,Vmaxpu=1.5,model=1,daily=RES1_7,status=variable
new load.3002533674M1 bus1=RML202566866.1.0,Phases=1,kv=0.12,kW=0.51426,pf=0.92,Vminpu=0.92,Vmaxpu=1.5,model=1,daily=RES1_23,status=variable
new load.3002533675M1 bus1=RML202566852.2.0,Phases=1,kv=0.12,kW=1.20244,pf=0.92,Vminpu=0.92,Vmaxpu=1.5,model=1,daily=RES2_2,status=variable
new load.3002533676M1 bus1=RML202566838.1.2.0,Phases=2,kv=0.24,kW=0.81594,pf=0.92,Vminpu=0.92,Vmaxpu=1.5,model=1,daily=RES2_2,status=variable
new load.3002533677M1 bus1=RML202566824.1.0,Phases=1,kv=0.12,kW=0.56272,pf=0.92,Vminpu=0.92,Vmaxpu=1.5,model=1,daily=RES1_10,status=variable
new load.3002533678M1 bus1=RML202566922.1.2.0,Phases=2,kv=0.24,kW=1.23664,pf=0.92,Vminpu=0.92,Vmaxpu=1.5,model=1,daily=RES3_19,status=variable
new load.3002533679M1 bus1=RML202567048.2.0,Phases=1,kv=0.12,kW=0.36906,pf=0.92,Vminpu=0.92,Vmaxpu=1.5,model=1,daily=RES2_6,status=variable
new load.3002533680M1 bus1=RML202567041.1.0,Phases=1,kv=0.12,kW=1.1665,pf=0.92,Vminpu=0.92,Vmaxpu=1.5,model=1,daily=RES2_1,status=variable
new load.3002533681M1 bus1=RML202567027.1.2.0,Phases=2,kv=0.24,kW=1.29154,pf=0.92,Vminpu=0.92,Vmaxpu=1.5,model=1,daily=RES2_15,status=variable
new load.3002533682M1 bus1=RML202567027.1.2.0,Phases=2,kv=0.24,kW=0.13992,pf=0.92,Vminpu=0.92,Vmaxpu=1.5,model=1,daily=COM1_4,status=variable
new load.3002533684M1 bus1=RML202567013.1.0,Phases=1,kv=0.12,kW=1.31742,pf=0.92,Vminpu=0.92,Vmaxpu=1.5,model=1,daily=RES2_9,status=variable
new load.3002533685M1 bus1=RML202567076.1.0,Phases=1,kv=0.12,kW=0.56942,pf=0.92,Vminpu=0.92,Vmaxpu=1.5,model=1,daily=RES1_26,status=variable
new load.3002533686M1 bus1=RML202567069.2.0,Phases=1,kv=0.12,kW=0.6693,pf=0.92,Vminpu=0.92,Vmaxpu=1.5,model=1,daily=RES2_6,status=variable
new load.3005479483M1 bus1=RML202566985.1.0,Phases=1,kv=0.12,kW=1.1036,pf=0.92,Vminpu=0.92,Vmaxpu=1.5,model=1,daily=RES1_6,status=variable
new load.3006054662M1 bus1=RML202566971.1.2.0,Phases=2,kv=0.24,kW=0.31292,pf=0.92,Vminpu=0.92,Vmaxpu=1.5,model=1,daily=RES2_17,status=variable
new load.3006100619M1 bus1=RML202566803.1.0,Phases=1,kv=0.12,kW=0.57088,pf=0.92,Vminpu=0.92,Vmaxpu=1.5,model=1,daily=RES2_9,status=variable
new load.3005924581M1 bus1=RML202567258.2.0,Phases=1,kv=0.127,kW=0.4026,pf=0.92,Vminpu=0.92,Vmaxpu=1.5,model=1,daily=RES1_2,status=variable
new load.3005924582M1 bus1=RML202567279.1.2.0,Phases=2,kv=0.22,kW=0.79442,pf=0.92,Vminpu=0.92,Vmaxpu=1.5,model=1,daily=RES2_6,status=variable
new load.3003987471M1 bus1=RML202567349.1.2.3.0,Phases=3,kv=0.22,kW=2.01348,pf=0.92,Vminpu=0.92,Vmaxpu=1.5,model=1,daily=RES5_16,status=variable
new load.3002533833M1 bus1=RML202567286.1.2.0,Phases=2,kv=0.22,kW=0.65372,pf=0.92,Vminpu=0.92,Vmaxpu=1.5,model=1,daily=RES2_23,status=variable
new load.3002533834M1 bus1=RML202567300.2.3.0,Phases=2,kv=0.22,kW=0.46238,pf=0.92,Vminpu=0.92,Vmaxpu=1.5,model=1,daily=RES1_25,status=variable
new load.3002533835M1 bus1=RML202567307.3.0,Phases=1,kv=0.127,kW=0.99878,pf=0.92,Vminpu=0.92,Vmaxpu=1.5,model=1,daily=RES2_7,status=variable
new load.3002533836M1 bus1=RML202567293.1.2.0,Phases=2,kv=0.22,kW=1.4361,pf=0.92,Vminpu=0.92,Vmaxpu=1.5,model=1,daily=RES1_11,status=variable
new load.3002533861M1 bus1=RML202567279.1.2.0,Phases=2,kv=0.22,kW=0.64508,pf=0.92,Vminpu=0.92,Vmaxpu=1.5,model=1,daily=RES2_17,status=variable
new load.3002533862M1 bus1=RML202567244.2.0,Phases=1,kv=0.127,kW=0.99968,pf=0.92,Vminpu=0.92,Vmaxpu=1.5,model=1,daily=RES2_14,status=variable
new load.3002533863M1 bus1=RML202567251.1.0,Phases=1,kv=0.127,kW=1.10378,pf=0.92,Vminpu=0.92,Vmaxpu=1.5,model=1,daily=RES1_1,status=variable
new load.3002533815M1 bus1=RML202567391.2.0,Phases=1,kv=0.127,kW=1.5679,pf=0.92,Vminpu=0.92,Vmaxpu=1.5,model=1,daily=RES3_12,status=variable
new load.3002533816M1 bus1=RML202567377.1.3.0,Phases=2,kv=0.22,kW=1.06964,pf=0.92,Vminpu=0.92,Vmaxpu=1.5,model=1,daily=RES2_6,status=variable
new load.3002533817M1 bus1=RML202567370.2.0,Phases=1,kv=0.127,kW=1.5438,pf=0.92,Vminpu=0.92,Vmaxpu=1.5,model=1,daily=RES2_12,status=variable
new load.3002533818M1 bus1=RML202567384.2.0,Phases=1,kv=0.127,kW=0.19432,pf=0.92,Vminpu=0.92,Vmaxpu=1.5,model=1,daily=RES3_11,status=variable
new load.3002533874M1 bus1=RML202567209.1.0,Phases=1,kv=0.127,kW=1.81618,pf=0.92,Vminpu=0.92,Vmaxpu=1.5,model=1,daily=RES2_20,status=variable
new load.3002533875M1 bus1=RML202567216.2.0,Phases=1,kv=0.127,kW=2.14986,pf=0.92,Vminpu=0.92,Vmaxpu=1.5,model=1,daily=RES1_3,status=variable
new load.3002533876M1 bus1=RML202567223.2.0,Phases=1,kv=0.127,kW=1.48978,pf=0.92,Vminpu=0.92,Vmaxpu=1.5,model=1,daily=RES2_4,status=variable
new load.3002533877M1 bus1=RML202567230.2.0,Phases=1,kv=0.127,kW=1.14376,pf=0.92,Vminpu=0.92,Vmaxpu=1.5,model=1,daily=RES2_4,status=variable
new load.3002533878M1 bus1=RML202567237.2.0,Phases=1,kv=0.127,kW=0.04498,pf=0.92,Vminpu=0.92,Vmaxpu=1.5,model=1,daily=RES1_18,status=variable
new load.3002533879M1 bus1=RML202567265.1.0,Phases=1,kv=0.127,kW=0.47848,pf=0.92,Vminpu=0.92,Vmaxpu=1.5,model=1,daily=RES2_25,status=variable
new load.3002533881M1 bus1=RML202567321.2.0,Phases=1,kv=0.127,kW=0.59872,pf=0.92,Vminpu=0.92,Vmaxpu=1.5,model=1,daily=RES1_7,status=variable
new load.3002533882M1 bus1=RML202567328.2.0,Phases=1,kv=0.127,kW=1.03614,pf=0.92,Vminpu=0.92,Vmaxpu=1.5,model=1,daily=RES1_14,status=variable
new load.3002533883M1 bus1=RML202567335.1.0,Phases=1,kv=0.127,kW=0.94758,pf=0.92,Vminpu=0.92,Vmaxpu=1.5,model=1,daily=RES2_12,status=variable
new load.3002533884M1 bus1=RML202567342.2.0,Phases=1,kv=0.127,kW=1.45134,pf=0.92,Vminpu=0.92,Vmaxpu=1.5,model=1,daily=RES2_4,status=variable
new load.3002533885M1 bus1=RML202567363.2.0,Phases=1,kv=0.127,kW=0.42222,pf=0.92,Vminpu=0.92,Vmaxpu=1.5,model=1,daily=RES1_2,status=variable
new load.3002533886M1 bus1=RML202567356.1.0,Phases=1,kv=0.127,kW=1.1596,pf=0.92,Vminpu=0.92,Vmaxpu=1.5,model=1,daily=RES3_17,status=variable
new load.3002533887M1 bus1=RML202567398.1.0,Phases=1,kv=0.127,kW=0.91564,pf=0.92,Vminpu=0.92,Vmaxpu=1.5,model=1,daily=RES2_12,status=variable
new load.3002533888M1 bus1=RML202567405.1.0,Phases=1,kv=0.127,kW=0.1624,pf=0.92,Vminpu=0.92,Vmaxpu=1.5,model=1,daily=RES1_9,status=variable
new load.3002533889M1 bus1=RML202567412.2.0,Phases=1,kv=0.127,kW=2.04348,pf=0.92,Vminpu=0.92,Vmaxpu=1.5,model=1,daily=RES2_15,status=variable
new load.3002533890M1 bus1=RML202567692.1.0,Phases=1,kv=0.127,kW=0.6088,pf=0.92,Vminpu=0.92,Vmaxpu=1.5,model=1,daily=RES1_2,status=variable
new load.3002533790M1 bus1=RML202567811.1.2.3.0,Phases=3,kv=0.22,kW=2.77914,pf=0.92,Vminpu=0.92,Vmaxpu=1.5,model=1,daily=COM2_28,status=variable
new load.3002533793M1 bus1=RML202567797.1.2.0,Phases=2,kv=0.22,kW=0.94252,pf=0.92,Vminpu=0.92,Vmaxpu=1.5,model=1,daily=COM1_6,status=variable
new load.3002533795M1 bus1=RML202567783.3.0,Phases=1,kv=0.127,kW=0.01974,pf=0.92,Vminpu=0.92,Vmaxpu=1.5,model=1,daily=RES2_8,status=variable
new load.3002533796M1 bus1=RML202567839.2.0,Phases=1,kv=0.127,kW=1.2089,pf=0.92,Vminpu=0.92,Vmaxpu=1.5,model=1,daily=RES1_1,status=variable
new load.3002533797M1 bus1=RML202567832.1.0,Phases=1,kv=0.127,kW=2.99642,pf=0.92,Vminpu=0.92,Vmaxpu=1.5,model=1,daily=RES1_13,status=variable
new load.3002533798M1 bus1=RML202567825.1.2.0,Phases=2,kv=0.22,kW=0.77268,pf=0.92,Vminpu=0.92,Vmaxpu=1.5,model=1,daily=RES2_5,status=variable
new load.3002533799M1 bus1=RML202567853.2.0,Phases=1,kv=0.127,kW=0.79502,pf=0.92,Vminpu=0.92,Vmaxpu=1.5,model=1,daily=RES3_15,status=variable
new load.3002533800M1 bus1=RML202567846.2.3.0,Phases=2,kv=0.22,kW=0.65744,pf=0.92,Vminpu=0.92,Vmaxpu=1.5,model=1,daily=RES1_10,status=variable
new load.3002533802M1 bus1=RML202567706.1.3.0,Phases=2,kv=0.22,kW=1.4511,pf=0.92,Vminpu=0.92,Vmaxpu=1.5,model=1,daily=RES1_5,status=variable
new load.3002533804M1 bus1=RML202567664.3.0,Phases=1,kv=0.127,kW=0.33834,pf=0.92,Vminpu=0.92,Vmaxpu=1.5,model=1,daily=RES2_22,status=variable
new load.3002533805M1 bus1=RML209038989.2.3.0,Phases=2,kv=0.22,kW=0.70676,pf=0.92,Vminpu=0.92,Vmaxpu=1.5,model=1,daily=RES1_20,status=variable
new load.3002533806M1 bus1=RML202567636.1.0,Phases=1,kv=0.127,kW=0.64272,pf=0.92,Vminpu=0.92,Vmaxpu=1.5,model=1,daily=RES1_11,status=variable
new load.3002533808M1 bus1=RML202567594.2.3.0,Phases=2,kv=0.22,kW=6.15088,pf=0.92,Vminpu=0.92,Vmaxpu=1.5,model=1,daily=COM2_16,status=variable
new load.3002533687M1 bus1=RML202567601.1.0,Phases=1,kv=0.127,kW=0.78368,pf=0.92,Vminpu=0.92,Vmaxpu=1.5,model=1,daily=RES2_23,status=variable
new load.3002533688M1 bus1=RML202567608.2.0,Phases=1,kv=0.127,kW=0.8231,pf=0.92,Vminpu=0.92,Vmaxpu=1.5,model=1,daily=RES2_2,status=variable
new load.3002533689M1 bus1=RML202567615.3.0,Phases=1,kv=0.127,kW=0.93814,pf=0.92,Vminpu=0.92,Vmaxpu=1.5,model=1,daily=RES2_1,status=variable
new load.3002533690M1 bus1=RML202567622.3.0,Phases=1,kv=0.127,kW=1.38138,pf=0.92,Vminpu=0.92,Vmaxpu=1.5,model=1,daily=RES2_2,status=variable
new load.3002533691M1 bus1=RML202567643.1.0,Phases=1,kv=0.127,kW=3.93108,pf=0.92,Vminpu=0.92,Vmaxpu=1.5,model=1,daily=RES2_3,status=variable
new load.3002533692M1 bus1=RML202567650.2.0,Phases=1,kv=0.127,kW=0.73286,pf=0.92,Vminpu=0.92,Vmaxpu=1.5,model=1,daily=RES2_10,status=variable
new load.3002533693M1 bus1=RML202567657.1.0,Phases=1,kv=0.127,kW=4.41224,pf=0.92,Vminpu=0.92,Vmaxpu=1.5,model=1,daily=RES3_1,status=variable
new load.3002533695M1 bus1=RML202567734.1.2.0,Phases=2,kv=0.22,kW=0.60886,pf=0.92,Vminpu=0.92,Vmaxpu=1.5,model=1,daily=COM1_14,status=variable
new load.3002533696M1 bus1=RML202567720.3.0,Phases=1,kv=0.127,kW=1.45716,pf=0.92,Vminpu=0.92,Vmaxpu=1.5,model=1,daily=RES2_21,status=variable
new load.3002533697M1 bus1=RML202567727.1.2.3.0,Phases=3,kv=0.22,kW=0.1592,pf=0.92,Vminpu=0.92,Vmaxpu=1.5,model=1,daily=RES3_13,status=variable
new load.3002533699M1 bus1=RML202567727.1.2.3.0,Phases=3,kv=0.22,kW=0.08876,pf=0.92,Vminpu=0.92,Vmaxpu=1.5,model=1,daily=COM1_20,status=variable
new load.3002533700M1 bus1=RML202567755.1.0,Phases=1,kv=0.127,kW=1.32218,pf=0.92,Vminpu=0.92,Vmaxpu=1.5,model=1,daily=RES3_11,status=variable
new load.3002533701M1 bus1=RML202567762.2.3.0,Phases=2,kv=0.22,kW=1.01634,pf=0.92,Vminpu=0.92,Vmaxpu=1.5,model=1,daily=RES2_2,status=variable
new load.3002533702M1 bus1=RML202567769.1.0,Phases=1,kv=0.127,kW=0.9387,pf=0.92,Vminpu=0.92,Vmaxpu=1.5,model=1,daily=RES2_7,status=variable
new load.3002533703M1 bus1=RML202567776.2.3.0,Phases=2,kv=0.22,kW=0.6073,pf=0.92,Vminpu=0.92,Vmaxpu=1.5,model=1,daily=RES2_11,status=variable
new load.3002533704M1 bus1=RML202567804.1.0,Phases=1,kv=0.127,kW=1.26912,pf=0.92,Vminpu=0.92,Vmaxpu=1.5,model=1,daily=RES2_7,status=variable
new load.3002533921M1 bus1=RML202567741.1.2.3.0,Phases=3,kv=0.22,kW=2.66758,pf=0.92,Vminpu=0.92,Vmaxpu=1.5,model=1,daily=COM1_20,status=variable
new load.3006773132M1 bus1=RML202569330.1.2.3.0,Phases=3,kv=0.22,kW=2.76908,pf=0.92,Vminpu=0.92,Vmaxpu=1.5,model=1,daily=COM1_23,status=variable
new load.3002533983M1 bus1=RML202571661.1.2.3.0,Phases=3,kv=0.22,kW=0.36248,pf=0.92,Vminpu=0.92,Vmaxpu=1.5,model=1,daily=COM1_7,status=variable
new load.3002533916M1 bus1=RML202569603.2.0,Phases=1,kv=0.12,kW=1.12048,pf=0.92,Vminpu=0.92,Vmaxpu=1.5,model=1,daily=RES1_5,status=variable
new load.3002533917M1 bus1=RML202569610.2.0,Phases=1,kv=0.12,kW=0.6495,pf=0.92,Vminpu=0.92,Vmaxpu=1.5,model=1,daily=RES2_5,status=variable
new load.3002533600M1 bus1=RML202569526.1.0,Phases=1,kv=0.12,kW=1.33132,pf=0.92,Vminpu=0.92,Vmaxpu=1.5,model=1,daily=RES2_21,status=variable
new load.3002533601M1 bus1=RML202569456.1.0,Phases=1,kv=0.12,kW=0.81854,pf=0.92,Vminpu=0.92,Vmaxpu=1.5,model=1,daily=RES2_7,status=variable
new load.3002533602M1 bus1=RML202569463.1.2.0,Phases=2,kv=0.24,kW=0.63232,pf=0.92,Vminpu=0.92,Vmaxpu=1.5,model=1,daily=RES1_3,status=variable
new load.3002533603M1 bus1=RML202569470.1.0,Phases=1,kv=0.12,kW=0.88698,pf=0.92,Vminpu=0.92,Vmaxpu=1.5,model=1,daily=RES2_20,status=variable
new load.3002533604M1 bus1=RML202569421.2.0,Phases=1,kv=0.12,kW=0.60618,pf=0.92,Vminpu=0.92,Vmaxpu=1.5,model=1,daily=RES3_20,status=variable
new load.3002533605M1 bus1=RML202569407.2.0,Phases=1,kv=0.12,kW=0.89354,pf=0.92,Vminpu=0.92,Vmaxpu=1.5,model=1,daily=RES1_1,status=variable
new load.3002533606M1 bus1=RML202569414.2.0,Phases=1,kv=0.12,kW=0.75846,pf=0.92,Vminpu=0.92,Vmaxpu=1.5,model=1,daily=RES2_7,status=variable
new load.3002533753M1 bus1=RML202569505.2.0,Phases=1,kv=0.12,kW=0.84098,pf=0.92,Vminpu=0.92,Vmaxpu=1.5,model=1,daily=RES1_1,status=variable
new load.3002533754M1 bus1=RML202569519.1.0,Phases=1,kv=0.12,kW=0.50588,pf=0.92,Vminpu=0.92,Vmaxpu=1.5,model=1,daily=RES2_22,status=variable
new load.3002533755M1 bus1=RML202569491.1.0,Phases=1,kv=0.12,kW=2.31412,pf=0.92,Vminpu=0.92,Vmaxpu=1.5,model=1,daily=RES1_8,status=variable
new load.3002533756M1 bus1=RML202569477.1.0,Phases=1,kv=0.12,kW=1.9331,pf=0.92,Vminpu=0.92,Vmaxpu=1.5,model=1,daily=RES3_2,status=variable
new load.3002533757M1 bus1=RML202569435.1.0,Phases=1,kv=0.12,kW=0.24346,pf=0.92,Vminpu=0.92,Vmaxpu=1.5,model=1,daily=RES3_8,status=variable
new load.3002533758M1 bus1=RML202569428.2.0,Phases=1,kv=0.12,kW=1.17022,pf=0.92,Vminpu=0.92,Vmaxpu=1.5,model=1,daily=RES2_5,status=variable
new load.3002533760M1 bus1=RML202569484.2.0,Phases=1,kv=0.12,kW=1.08062,pf=0.92,Vminpu=0.92,Vmaxpu=1.5,model=1,daily=RES2_5,status=variable
new load.3002533761M1 bus1=RML202569498.2.0,Phases=1,kv=0.12,kW=0.60028,pf=0.92,Vminpu=0.92,Vmaxpu=1.5,model=1,daily=RES2_28,status=variable
new load.3002533762M1 bus1=RML202569554.1.0,Phases=1,kv=0.12,kW=0.57974,pf=0.92,Vminpu=0.92,Vmaxpu=1.5,model=1,daily=RES2_2,status=variable
new load.3002533763M1 bus1=RML202569547.2.0,Phases=1,kv=0.12,kW=2.20146,pf=0.92,Vminpu=0.92,Vmaxpu=1.5,model=1,daily=RES2_11,status=variable
new load.3002533764M1 bus1=RML202569540.2.0,Phases=1,kv=0.12,kW=0.69716,pf=0.92,Vminpu=0.92,Vmaxpu=1.5,model=1,daily=RES1_2,status=variable
new load.3002533765M1 bus1=RML202569533.2.0,Phases=1,kv=0.12,kW=0.82658,pf=0.92,Vminpu=0.92,Vmaxpu=1.5,model=1,daily=RES2_4,status=variable
new load.3002533766M1 bus1=RML202569575.1.0,Phases=1,kv=0.12,kW=1.01934,pf=0.92,Vminpu=0.92,Vmaxpu=1.5,model=1,daily=RES2_10,status=variable
new load.3002533767M1 bus1=RML202569582.1.0,Phases=1,kv=0.12,kW=0.7659,pf=0.92,Vminpu=0.92,Vmaxpu=1.5,model=1,daily=RES1_2,status=variable
new load.3002533768M1 bus1=RML202569589.1.0,Phases=1,kv=0.12,kW=0.39748,pf=0.92,Vminpu=0.92,Vmaxpu=1.5,model=1,daily=RES2_22,status=variable
new load.3005479482M1 bus1=RML202569463.1.2.0,Phases=2,kv=0.24,kW=1.00084,pf=0.92,Vminpu=0.92,Vmaxpu=1.5,model=1,daily=RES2_6,status=variable
new load.3002533614M1 bus1=RML202569708.1.0,Phases=1,kv=0.12,kW=0.6818,pf=0.92,Vminpu=0.92,Vmaxpu=1.5,model=1,daily=RES2_18,status=variable