! manter este comentario para compatibilidade do C#
new circuit.alimSLAT309 bus1=BMT102962463.1.2.3,basekv=13.800000000,pu=1.040000000

