new transformer.1321378 Phases=1,Windings=3,Buses=[BMT163695923.1 BBT94150590.1.0 BBT94150590.0.2],Conns=[wye wye wye],kvs=[7.967 0.12 0.12],kvas=[5.000000000 5.000000000 5.000000000],Taps=[1,1.000000000,1.000000000],%loadloss=1.900000000,%noloadloss=0.600000000
new transformer.1345710 Phases=1,Windings=3,Buses=[BMT155361870.3 BBT112305216.1.0 BBT112305216.0.2],Conns=[wye wye wye],kvs=[7.967 0.12 0.12],kvas=[5.000000000 5.000000000 5.000000000],Taps=[1,1.000000000,1.000000000],%loadloss=1.900000000,%noloadloss=0.600000000
new transformer.144817 Phases=1,Windings=3,Buses=[BMT102964339.2 BBT1232547.1.0 BBT1232547.0.2],Conns=[wye wye wye],kvs=[7.967 0.12 0.12],kvas=[10.000000000 10.000000000 10.000000000],Taps=[1,1.000000000,1.000000000],%loadloss=1.800000000,%noloadloss=0.450000000
new transformer.1489936 Phases=1,Windings=3,Buses=[BMT169918627.1 BBT169918628.1.0 BBT169918628.0.2],Conns=[wye wye wye],kvs=[7.967 0.12 0.12],kvas=[35.000000000 35.000000000 35.000000000],Taps=[1,1.000000000,1.000000000],%loadloss=1.293000000,%noloadloss=0.342857000
new transformer.1490050 Phases=1,Windings=3,Buses=[BMT169942354.2 BBT169941827.1.0 BBT169941827.0.2],Conns=[wye wye wye],kvs=[7.967 0.12 0.12],kvas=[15.000000000 15.000000000 15.000000000],Taps=[1,1.000000000,1.000000000],%loadloss=1.600000000,%noloadloss=0.400000000
new transformer.178914 Phases=1,Windings=3,Buses=[BMT169001181.2 BBT1414393.1.0 BBT1414393.0.2],Conns=[wye wye wye],kvs=[7.967 0.12 0.12],kvas=[35.000000000 35.000000000 35.000000000],Taps=[1,1.000000000,1.000000000],%loadloss=1.293000000,%noloadloss=0.342857000
new transformer.178928 Phases=3,Windings=2,Buses=[BMT169001179.1.2.3 BBT1414491.1.2.3.0],Conns=[delta wye],kvs=[13.8 0.22],kvas=[45.000000000 45.000000000],Taps=[1,1.000000000],%loadloss=1.522000000,%noloadloss=0.377777000
new transformer.178956 Phases=1,Windings=3,Buses=[BMT102964836.3 BBT1414701.1.0 BBT1414701.0.2],Conns=[wye wye wye],kvs=[7.967 0.12 0.12],kvas=[10.000000000 10.000000000 10.000000000],Taps=[1,1.000000000,1.000000000],%loadloss=1.800000000,%noloadloss=0.450000000
new transformer.178970 Phases=1,Windings=3,Buses=[BMT155361875.2 BBT1414785.1.0 BBT1414785.0.2],Conns=[wye wye wye],kvs=[7.967 0.12 0.12],kvas=[10.000000000 10.000000000 10.000000000],Taps=[1,1.000000000,1.000000000],%loadloss=1.800000000,%noloadloss=0.450000000
new transformer.179005 Phases=3,Windings=2,Buses=[BMT151949170.1.2.3 BBT1415072.1.2.3.0],Conns=[delta wye],kvs=[13.8 0.22],kvas=[15.000000000 15.000000000],Taps=[1,1.000000000],%loadloss=1.967000000,%noloadloss=0.500000000
new transformer.179019 Phases=3,Windings=2,Buses=[BMT157530644.1.2.3 BBT1415177.1.2.3.0],Conns=[delta wye],kvs=[13.8 0.22],kvas=[45.000000000 45.000000000],Taps=[1,1.000000000],%loadloss=1.522000000,%noloadloss=0.377777000
new transformer.179040 Phases=1,Windings=3,Buses=[BMT157530646.2 BBT1415282.1.0 BBT1415282.0.2],Conns=[wye wye wye],kvs=[7.967 0.12 0.12],kvas=[15.000000000 15.000000000 15.000000000],Taps=[1,1.000000000,1.000000000],%loadloss=1.600000000,%noloadloss=0.400000000
new transformer.179054 Phases=3,Windings=2,Buses=[BMT102963660.1.2.3 BBT1415443.1.2.3.0],Conns=[delta wye],kvs=[13.8 0.22],kvas=[75.000000000 75.000000000],Taps=[1,1.000000000],%loadloss=1.340000000,%noloadloss=0.340000000
new transformer.179068 Phases=3,Windings=2,Buses=[BMT169001183.1.2.3 BBT1415492.1.2.3.0],Conns=[delta wye],kvs=[13.8 0.22],kvas=[30.000000000 30.000000000],Taps=[1,1.000000000],%loadloss=1.667000000,%noloadloss=0.433333000
new transformer.179082 Phases=1,Windings=3,Buses=[BMT102964801.3 BBT1415646.1.0 BBT1415646.0.2],Conns=[wye wye wye],kvs=[7.967 0.12 0.12],kvas=[35.000000000 35.000000000 35.000000000],Taps=[1,1.000000000,1.000000000],%loadloss=1.293000000,%noloadloss=0.342857000
new transformer.179110 Phases=1,Windings=3,Buses=[BMT169001197.1 BBT1415933.1.0 BBT1415933.0.2],Conns=[wye wye wye],kvs=[7.967 0.12 0.12],kvas=[15.000000000 15.000000000 15.000000000],Taps=[1,1.000000000,1.000000000],%loadloss=1.600000000,%noloadloss=0.400000000
new transformer.179124 Phases=1,Windings=3,Buses=[BMT160337597.2 BBT1415989.1.0 BBT1415989.0.2],Conns=[wye wye wye],kvs=[7.967 0.12 0.12],kvas=[15.000000000 15.000000000 15.000000000],Taps=[1,1.000000000,1.000000000],%loadloss=1.600000000,%noloadloss=0.400000000
new transformer.179138 Phases=1,Windings=3,Buses=[BMT102964654.2 BBT1416129.1.0 BBT1416129.0.2],Conns=[wye wye wye],kvs=[7.967 0.12 0.12],kvas=[15.000000000 15.000000000 15.000000000],Taps=[1,1.000000000,1.000000000],%loadloss=1.600000000,%noloadloss=0.400000000
new transformer.179152 Phases=3,Windings=2,Buses=[BMT162786851.1.2.3 BBT1416178.1.2.3.0],Conns=[delta wye],kvs=[13.8 0.22],kvas=[30.000000000 30.000000000],Taps=[1,1.000000000],%loadloss=1.667000000,%noloadloss=0.433333000
new transformer.179166 Phases=1,Windings=3,Buses=[BMT151949171.1 BBT1416318.1.0 BBT1416318.0.2],Conns=[wye wye wye],kvs=[7.967 0.12 0.12],kvas=[35.000000000 35.000000000 35.000000000],Taps=[1,1.000000000,1.000000000],%loadloss=1.293000000,%noloadloss=0.342857000
new transformer.179180 Phases=1,Windings=3,Buses=[BMT162786853.2 BBT1416346.1.0 BBT1416346.0.2],Conns=[wye wye wye],kvs=[7.967 0.12 0.12],kvas=[15.000000000 15.000000000 15.000000000],Taps=[1,1.000000000,1.000000000],%loadloss=1.600000000,%noloadloss=0.400000000
new transformer.179222 Phases=1,Windings=3,Buses=[BMT162786854.2 BBT1416731.1.0 BBT1416731.0.2],Conns=[wye wye wye],kvs=[7.967 0.12 0.12],kvas=[15.000000000 15.000000000 15.000000000],Taps=[1,1.000000000,1.000000000],%loadloss=1.600000000,%noloadloss=0.400000000
new transformer.179236 Phases=1,Windings=3,Buses=[BMT169001195.2 BBT1416815.1.0 BBT1416815.0.2],Conns=[wye wye wye],kvs=[7.967 0.12 0.12],kvas=[10.000000000 10.000000000 10.000000000],Taps=[1,1.000000000,1.000000000],%loadloss=1.800000000,%noloadloss=0.450000000
new transformer.179250 Phases=1,Windings=3,Buses=[BMT169001193.1 BBT1416878.1.0 BBT1416878.0.2],Conns=[wye wye wye],kvs=[7.967 0.12 0.12],kvas=[10.000000000 10.000000000 10.000000000],Taps=[1,1.000000000,1.000000000],%loadloss=1.800000000,%noloadloss=0.450000000
new transformer.1156591 Phases=1,Windings=3,Buses=[BMT151949169.1 BBT36039537.1.0 BBT36039537.0.2],Conns=[wye wye wye],kvs=[7.967 0.12 0.12],kvas=[5.000000000 5.000000000 5.000000000],Taps=[1,1.000000000,1.000000000],%loadloss=1.900000000,%noloadloss=0.600000000
new transformer.1201965 Phases=3,Windings=2,Buses=[BMT102966145.1.2.3 BBT42459398.1.2.3.0],Conns=[delta wye],kvs=[13.8 0.22],kvas=[75.000000000 75.000000000],Taps=[1,1.000000000],%loadloss=1.340000000,%noloadloss=0.340000000
new transformer.1342917 Phases=3,Windings=2,Buses=[BMT164689167.1.2.3 BBT110178168.1.2.3.0],Conns=[delta wye],kvs=[13.8 0.22],kvas=[45.000000000 45.000000000],Taps=[1,1.000000000],%loadloss=1.522000000,%noloadloss=0.377777000
new transformer.1368250 Phases=3,Windings=2,Buses=[BMT129933995.1.2.3 BBT129930159.1.2.3.0],Conns=[delta wye],kvs=[13.8 0.22],kvas=[30.000000000 30.000000000],Taps=[1,1.000000000],%loadloss=1.667000000,%noloadloss=0.433333000
new transformer.1368397 Phases=3,Windings=2,Buses=[BMT163040192.1.2.3 BBT129997919.1.2.3.0],Conns=[delta wye],kvs=[13.8 0.22],kvas=[30.000000000 30.000000000],Taps=[1,1.000000000],%loadloss=1.667000000,%noloadloss=0.433333000
new transformer.1390323 Phases=3,Windings=2,Buses=[BMT166942729.1.2.3 BBT148086678.1.2.3.0],Conns=[delta wye],kvs=[13.8 0.22],kvas=[75.000000000 75.000000000],Taps=[1,1.000000000],%loadloss=1.340000000,%noloadloss=0.340000000
new transformer.1410400 Phases=3,Windings=2,Buses=[BMT169001201.1.2.3 BBT152926569.1.2.3.0],Conns=[delta wye],kvs=[13.8 0.22],kvas=[45.000000000 45.000000000],Taps=[1,1.000000000],%loadloss=1.522000000,%noloadloss=0.377777000
new transformer.1419323 Phases=3,Windings=2,Buses=[BMT169001174.1.2.3 BBT154901416.1.2.3.0],Conns=[delta wye],kvs=[13.8 0.22],kvas=[75.000000000 75.000000000],Taps=[1,1.000000000],%loadloss=1.340000000,%noloadloss=0.340000000
new transformer.1419326 Phases=3,Windings=2,Buses=[BMT169001170.1.2.3 BBT154901918.1.2.3.0],Conns=[delta wye],kvs=[13.8 0.22],kvas=[75.000000000 75.000000000],Taps=[1,1.000000000],%loadloss=1.340000000,%noloadloss=0.340000000
new transformer.1419327 Phases=3,Windings=2,Buses=[BMT169001182.1.2.3 BBT154902857.1.2.3.0],Conns=[delta wye],kvs=[13.8 0.22],kvas=[75.000000000 75.000000000],Taps=[1,1.000000000],%loadloss=1.340000000,%noloadloss=0.340000000
new transformer.1419341 Phases=3,Windings=2,Buses=[BMT169001171.1.2.3 BBT154906919.1.2.3.0],Conns=[delta wye],kvs=[13.8 0.22],kvas=[75.000000000 75.000000000],Taps=[1,1.000000000],%loadloss=1.340000000,%noloadloss=0.340000000
new transformer.1424829 Phases=3,Windings=2,Buses=[BMT157530647.1.2.3 BBT156067102.1.2.3.0],Conns=[delta wye],kvs=[13.8 0.22],kvas=[45.000000000 45.000000000],Taps=[1,1.000000000],%loadloss=1.522000000,%noloadloss=0.377777000
new transformer.1424832 Phases=3,Windings=2,Buses=[BMT157530648.1.2.3 BBT156067351.1.2.3.0],Conns=[delta wye],kvs=[13.8 0.22],kvas=[45.000000000 45.000000000],Taps=[1,1.000000000],%loadloss=1.522000000,%noloadloss=0.377777000
new transformer.1430847 Phases=1,Windings=3,Buses=[BMT169104658.2 BBT157395447.1.0 BBT157395447.0.2],Conns=[wye wye wye],kvs=[7.967 0.12 0.12],kvas=[10.000000000 10.000000000 10.000000000],Taps=[1,1.000000000,1.000000000],%loadloss=1.800000000,%noloadloss=0.450000000
new transformer.144600 Phases=3,Windings=2,Buses=[BMT102964416.1.2.3 BBT1231819.1.2.3.0],Conns=[delta wye],kvs=[13.8 0.22],kvas=[30.000000000 30.000000000],Taps=[1,1.000000000],%loadloss=1.667000000,%noloadloss=0.433333000
new transformer.145104 Phases=3,Windings=2,Buses=[BMT102964262.1.2.3 BBT1233863.1.2.3.0],Conns=[delta wye],kvs=[13.8 0.22],kvas=[75.000000000 75.000000000],Taps=[1,1.000000000],%loadloss=1.340000000,%noloadloss=0.340000000
new transformer.145146 Phases=1,Windings=3,Buses=[BMT102964395.2 BBT1234157.1.0 BBT1234157.0.2],Conns=[wye wye wye],kvs=[7.967 0.12 0.12],kvas=[10.000000000 10.000000000 10.000000000],Taps=[1,1.000000000,1.000000000],%loadloss=1.800000000,%noloadloss=0.450000000
new transformer.180888 Phases=3,Windings=2,Buses=[BMT163694739.1.2.3 BBT1429177.1.2.3.0],Conns=[delta wye],kvs=[13.8 0.22],kvas=[15.000000000 15.000000000],Taps=[1,1.000000000],%loadloss=1.967000000,%noloadloss=0.500000000
new transformer.180923 Phases=1,Windings=3,Buses=[BMT167511074.3 BBT1429331.1.0 BBT1429331.0.2],Conns=[wye wye wye],kvs=[7.967 0.12 0.12],kvas=[10.000000000 10.000000000 10.000000000],Taps=[1,1.000000000,1.000000000],%loadloss=1.800000000,%noloadloss=0.450000000
new transformer.181021 Phases=3,Windings=2,Buses=[BMT163903968.1.2.3 BBT1430094.1.2.3.0],Conns=[delta wye],kvs=[13.8 0.22],kvas=[75.000000000 75.000000000],Taps=[1,1.000000000],%loadloss=1.340000000,%noloadloss=0.340000000
new transformer.181042 Phases=1,Windings=3,Buses=[BMT155361864.2 BBT1430248.1.0 BBT1430248.0.2],Conns=[wye wye wye],kvs=[7.967 0.12 0.12],kvas=[15.000000000 15.000000000 15.000000000],Taps=[1,1.000000000,1.000000000],%loadloss=1.600000000,%noloadloss=0.400000000
new transformer.181091 Phases=3,Windings=2,Buses=[BMT163695783.1.2.3 BBT1430654.1.2.3.0],Conns=[delta wye],kvs=[13.8 0.22],kvas=[45.000000000 45.000000000],Taps=[1,1.000000000],%loadloss=1.522000000,%noloadloss=0.377777000
new transformer.1084036 Phases=1,Windings=3,Buses=[BMT149111558.1 BBT19307787.1.0 BBT19307787.0.2],Conns=[wye wye wye],kvs=[7.967 0.12 0.12],kvas=[15.000000000 15.000000000 15.000000000],Taps=[1,1.000000000,1.000000000],%loadloss=1.600000000,%noloadloss=0.400000000
new transformer.1084050 Phases=1,Windings=3,Buses=[BMT149111556.1 BBT19307976.1.0 BBT19307976.0.2],Conns=[wye wye wye],kvs=[7.967 0.12 0.12],kvas=[15.000000000 15.000000000 15.000000000],Taps=[1,1.000000000,1.000000000],%loadloss=1.600000000,%noloadloss=0.400000000
new transformer.1158313 Phases=1,Windings=3,Buses=[BMT159978241.1 BBT35409642.1.0 BBT35409642.0.2],Conns=[wye wye wye],kvs=[7.967 0.12 0.12],kvas=[5.000000000 5.000000000 5.000000000],Taps=[1,1.000000000,1.000000000],%loadloss=1.900000000,%noloadloss=0.600000000
new transformer.1158474 Phases=1,Windings=3,Buses=[BMT149111559.1 BBT35425329.1.0 BBT35425329.0.2],Conns=[wye wye wye],kvs=[7.967 0.12 0.12],kvas=[5.000000000 5.000000000 5.000000000],Taps=[1,1.000000000,1.000000000],%loadloss=1.900000000,%noloadloss=0.600000000
new transformer.1205948 Phases=1,Windings=3,Buses=[BMT151235514.3 BBT56411973.1.0 BBT56411973.0.2],Conns=[wye wye wye],kvs=[7.967 0.12 0.12],kvas=[15.000000000 15.000000000 15.000000000],Taps=[1,1.000000000,1.000000000],%loadloss=1.600000000,%noloadloss=0.400000000
new transformer.144957 Phases=1,Windings=3,Buses=[BMT102964297.2 BBT1233317.1.0 BBT1233317.0.2],Conns=[wye wye wye],kvs=[7.967 0.12 0.12],kvas=[15.000000000 15.000000000 15.000000000],Taps=[1,1.000000000,1.000000000],%loadloss=1.600000000,%noloadloss=0.400000000
new transformer.144999 Phases=3,Windings=2,Buses=[BMT102964360.1.2.3 BBT1233471.1.2.3.0],Conns=[delta wye],kvs=[13.8 0.22],kvas=[30.000000000 30.000000000],Taps=[1,1.000000000],%loadloss=1.667000000,%noloadloss=0.433333000
new transformer.145006 Phases=3,Windings=2,Buses=[BMT102964409.1.2.3 BBT1233485.1.2.3.0],Conns=[delta wye],kvs=[13.8 0.22],kvas=[75.000000000 75.000000000],Taps=[1,1.000000000],%loadloss=1.340000000,%noloadloss=0.340000000
new transformer.1455915 Phases=1,Windings=3,Buses=[BMT164689174.2 BBT163361534.1.0 BBT163361534.0.2],Conns=[wye wye wye],kvs=[7.967 0.12 0.12],kvas=[10.000000000 10.000000000 10.000000000],Taps=[1,1.000000000,1.000000000],%loadloss=1.800000000,%noloadloss=0.450000000
new transformer.1461061 Phases=1,Windings=3,Buses=[BMT166130593.2 BBT164921311.1.0 BBT164921311.0.2],Conns=[wye wye wye],kvs=[7.967 0.12 0.12],kvas=[10.000000000 10.000000000 10.000000000],Taps=[1,1.000000000,1.000000000],%loadloss=1.800000000,%noloadloss=0.450000000
new transformer.180335 Phases=1,Windings=3,Buses=[BMT164689169.1 BBT1424655.1.0 BBT1424655.0.2],Conns=[wye wye wye],kvs=[7.967 0.12 0.12],kvas=[5.000000000 5.000000000 5.000000000],Taps=[1,1.000000000,1.000000000],%loadloss=1.900000000,%noloadloss=0.600000000
new transformer.180349 Phases=3,Windings=2,Buses=[BMT164689171.1.2.3 BBT1424711.1.2.3.0],Conns=[delta wye],kvs=[13.8 0.22],kvas=[30.000000000 30.000000000],Taps=[1,1.000000000],%loadloss=1.667000000,%noloadloss=0.433333000
new transformer.180419 Phases=3,Windings=2,Buses=[BMT164689166.1.2.3 BBT1425383.1.2.3.0],Conns=[delta wye],kvs=[13.8 0.22],kvas=[30.000000000 30.000000000],Taps=[1,1.000000000],%loadloss=1.667000000,%noloadloss=0.433333000
new transformer.180433 Phases=3,Windings=2,Buses=[BMT102965046.1.2.3 BBT1425411.1.2.3.0],Conns=[delta wye],kvs=[13.8 0.22],kvas=[75.000000000 75.000000000],Taps=[1,1.000000000],%loadloss=1.340000000,%noloadloss=0.340000000
new transformer.180475 Phases=3,Windings=2,Buses=[BMT102965039.1.2.3 BBT1425838.1.2.3.0],Conns=[delta wye],kvs=[13.8 0.22],kvas=[45.000000000 45.000000000],Taps=[1,1.000000000],%loadloss=1.522000000,%noloadloss=0.377777000
new transformer.180650 Phases=1,Windings=3,Buses=[BMT163904134.1 BBT1427357.1.0 BBT1427357.0.2],Conns=[wye wye wye],kvs=[7.967 0.12 0.12],kvas=[35.000000000 35.000000000 35.000000000],Taps=[1,1.000000000,1.000000000],%loadloss=1.293000000,%noloadloss=0.342857000
new transformer.184724 Phases=3,Windings=2,Buses=[BMT162496655.1.2.3 BBT1457422.1.2.3.0],Conns=[delta wye],kvs=[13.8 0.22],kvas=[30.000000000 30.000000000],Taps=[1,1.000000000],%loadloss=1.667000000,%noloadloss=0.433333000
new transformer.184745 Phases=3,Windings=2,Buses=[BMT162496645.1.2.3 BBT1457646.1.2.3.0],Conns=[delta wye],kvs=[13.8 0.22],kvas=[30.000000000 30.000000000],Taps=[1,1.000000000],%loadloss=1.667000000,%noloadloss=0.433333000
new transformer.184787 Phases=3,Windings=2,Buses=[BMT162496646.1.2.3 BBT1457996.1.2.3.0],Conns=[delta wye],kvs=[13.8 0.22],kvas=[30.000000000 30.000000000],Taps=[1,1.000000000],%loadloss=1.667000000,%noloadloss=0.433333000
new transformer.184885 Phases=3,Windings=2,Buses=[BMT156455480.1.2.3 BBT1458934.1.2.3.0],Conns=[delta wye],kvs=[13.8 0.22],kvas=[75.000000000 75.000000000],Taps=[1,1.000000000],%loadloss=1.340000000,%noloadloss=0.340000000
new transformer.184941 Phases=3,Windings=2,Buses=[BMT166564197.1.2.3 BBT1459403.1.2.3.0],Conns=[delta wye],kvs=[13.8 0.22],kvas=[100.000000000 100.000000000],Taps=[1,1.000000000],%loadloss=1.218000000,%noloadloss=0.335000000
new transformer.1415376 Phases=1,Windings=3,Buses=[BMT163694915.2 BBT153979606.1.0 BBT153979606.0.2],Conns=[wye wye wye],kvs=[7.967 0.12 0.12],kvas=[10.000000000 10.000000000 10.000000000],Taps=[1,1.000000000,1.000000000],%loadloss=1.800000000,%noloadloss=0.450000000
new transformer.144642 Phases=1,Windings=3,Buses=[BMT102964332.2 BBT1231903.1.0 BBT1231903.0.2],Conns=[wye wye wye],kvs=[7.967 0.12 0.12],kvas=[10.000000000 10.000000000 10.000000000],Taps=[1,1.000000000,1.000000000],%loadloss=1.800000000,%noloadloss=0.450000000
new transformer.145027 Phases=3,Windings=2,Buses=[BMT102964241.1.2.3 BBT1233527.1.2.3.0],Conns=[delta wye],kvs=[13.8 0.22],kvas=[150.000000000 150.000000000],Taps=[1,1.000000000],%loadloss=1.127000000,%noloadloss=0.280000000
new transformer.145083 Phases=3,Windings=2,Buses=[BMT102964381.1.2.3 BBT1233821.1.2.3.0],Conns=[delta wye],kvs=[13.8 0.22],kvas=[45.000000000 45.000000000],Taps=[1,1.000000000],%loadloss=1.522000000,%noloadloss=0.377777000
new transformer.1476454 Phases=3,Windings=2,Buses=[BMT167511073.1.2.3 BBT167511003.1.2.3.0],Conns=[delta wye],kvs=[13.8 0.22],kvas=[75.000000000 75.000000000],Taps=[1,1.000000000],%loadloss=1.340000000,%noloadloss=0.340000000
new transformer.181539 Phases=3,Windings=2,Buses=[BMT150726815.1.2.3 BBT1433664.1.2.3.0],Conns=[delta wye],kvs=[13.8 0.22],kvas=[30.000000000 30.000000000],Taps=[1,1.000000000],%loadloss=1.667000000,%noloadloss=0.433333000
new transformer.181581 Phases=1,Windings=3,Buses=[BMT166942732.2 BBT1434119.1.0 BBT1434119.0.2],Conns=[wye wye wye],kvs=[7.967 0.12 0.12],kvas=[10.000000000 10.000000000 10.000000000],Taps=[1,1.000000000,1.000000000],%loadloss=1.800000000,%noloadloss=0.450000000
new transformer.181679 Phases=3,Windings=2,Buses=[BMT150726814.1.2.3 BBT1434707.1.2.3.0],Conns=[delta wye],kvs=[13.8 0.22],kvas=[45.000000000 45.000000000],Taps=[1,1.000000000],%loadloss=1.522000000,%noloadloss=0.377777000
new transformer.181707 Phases=3,Windings=2,Buses=[BMT166918526.1.2.3 BBT1435022.1.2.3.0],Conns=[delta wye],kvs=[13.8 0.22],kvas=[15.000000000 15.000000000],Taps=[1,1.000000000],%loadloss=1.967000000,%noloadloss=0.500000000
new transformer.181798 Phases=1,Windings=3,Buses=[BMT132200707.2 BBT1435687.1.0 BBT1435687.0.2],Conns=[wye wye wye],kvs=[7.967 0.12 0.12],kvas=[15.000000000 15.000000000 15.000000000],Taps=[1,1.000000000,1.000000000],%loadloss=1.600000000,%noloadloss=0.400000000
new transformer.181812 Phases=1,Windings=3,Buses=[BMT102965494.2 BBT1435806.1.0 BBT1435806.0.2],Conns=[wye wye wye],kvs=[7.967 0.12 0.12],kvas=[10.000000000 10.000000000 10.000000000],Taps=[1,1.000000000,1.000000000],%loadloss=1.800000000,%noloadloss=0.450000000
new transformer.181833 Phases=1,Windings=3,Buses=[BMT102963170.1 BBT1435848.1.0 BBT1435848.0.2],Conns=[wye wye wye],kvs=[7.967 0.12 0.12],kvas=[10.000000000 10.000000000 10.000000000],Taps=[1,1.000000000,1.000000000],%loadloss=1.800000000,%noloadloss=0.450000000
new transformer.181861 Phases=1,Windings=3,Buses=[BMT102965487.2 BBT1436065.1.0 BBT1436065.0.2],Conns=[wye wye wye],kvs=[7.967 0.12 0.12],kvas=[10.000000000 10.000000000 10.000000000],Taps=[1,1.000000000,1.000000000],%loadloss=1.800000000,%noloadloss=0.450000000
new transformer.181882 Phases=1,Windings=3,Buses=[BMT102965473.2 BBT1436240.1.0 BBT1436240.0.2],Conns=[wye wye wye],kvs=[7.967 0.12 0.12],kvas=[10.000000000 10.000000000 10.000000000],Taps=[1,1.000000000,1.000000000],%loadloss=1.800000000,%noloadloss=0.450000000
new transformer.181896 Phases=3,Windings=2,Buses=[BMT166942730.1.2.3 BBT1436359.1.2.3.0],Conns=[delta wye],kvs=[13.8 0.22],kvas=[30.000000000 30.000000000],Taps=[1,1.000000000],%loadloss=1.667000000,%noloadloss=0.433333000
new transformer.181910 Phases=1,Windings=3,Buses=[BMT161019867.3 BBT1436436.1.0 BBT1436436.0.2],Conns=[wye wye wye],kvs=[7.967 0.12 0.12],kvas=[35.000000000 35.000000000 35.000000000],Taps=[1,1.000000000,1.000000000],%loadloss=1.293000000,%noloadloss=0.342857000
new transformer.181987 Phases=1,Windings=3,Buses=[BMT169918624.1 BBT1437199.1.0 BBT1437199.0.2],Conns=[wye wye wye],kvs=[7.967 0.12 0.12],kvas=[10.000000000 10.000000000 10.000000000],Taps=[1,1.000000000,1.000000000],%loadloss=1.800000000,%noloadloss=0.450000000
new transformer.182008 Phases=1,Windings=3,Buses=[BMT169918626.1 BBT1437332.1.0 BBT1437332.0.2],Conns=[wye wye wye],kvs=[7.967 0.12 0.12],kvas=[15.000000000 15.000000000 15.000000000],Taps=[1,1.000000000,1.000000000],%loadloss=1.600000000,%noloadloss=0.400000000
new transformer.182071 Phases=3,Windings=2,Buses=[BMT166942733.1.2.3 BBT1437731.1.2.3.0],Conns=[delta wye],kvs=[13.8 0.22],kvas=[30.000000000 30.000000000],Taps=[1,1.000000000],%loadloss=1.667000000,%noloadloss=0.433333000
new transformer.1378211 Phases=1,Windings=3,Buses=[BMT160337598.2 BBT136451359.1.0 BBT136451359.0.2],Conns=[wye wye wye],kvs=[7.967 0.12 0.12],kvas=[15.000000000 15.000000000 15.000000000],Taps=[1,1.000000000,1.000000000],%loadloss=1.600000000,%noloadloss=0.400000000
new transformer.1398433 Phases=1,Windings=3,Buses=[BMT149945012.1 BBT149945003.1.0 BBT149945003.0.2],Conns=[wye wye wye],kvs=[7.967 0.12 0.12],kvas=[10.000000000 10.000000000 10.000000000],Taps=[1,1.000000000,1.000000000],%loadloss=1.800000000,%noloadloss=0.450000000
new transformer.1432360 Phases=3,Windings=2,Buses=[BMT157790070.1.2.3 BBT157683907.1.2.3.0],Conns=[delta wye],kvs=[13.8 0.22],kvas=[45.000000000 45.000000000],Taps=[1,1.000000000],%loadloss=1.522000000,%noloadloss=0.377777000
new transformer.1468192 Phases=1,Windings=3,Buses=[BMT166130596.2 BBT166130602.1.0 BBT166130602.0.2],Conns=[wye wye wye],kvs=[7.967 0.12 0.12],kvas=[10.000000000 10.000000000 10.000000000],Taps=[1,1.000000000,1.000000000],%loadloss=1.800000000,%noloadloss=0.450000000
new transformer.178886 Phases=1,Windings=3,Buses=[BMT169001178.2 BBT1414211.1.0 BBT1414211.0.2],Conns=[wye wye wye],kvs=[7.967 0.12 0.12],kvas=[15.000000000 15.000000000 15.000000000],Taps=[1,1.000000000,1.000000000],%loadloss=1.600000000,%noloadloss=0.400000000
new transformer.183436 Phases=3,Windings=2,Buses=[BMT102966292.1.2.3 BBT1447587.1.2.3.0],Conns=[delta wye],kvs=[13.8 0.22],kvas=[45.000000000 45.000000000],Taps=[1,1.000000000],%loadloss=1.522000000,%noloadloss=0.377777000
new transformer.183548 Phases=3,Windings=2,Buses=[BMT163040193.1.2.3 BBT1448455.1.2.3.0],Conns=[delta wye],kvs=[13.8 0.22],kvas=[45.000000000 45.000000000],Taps=[1,1.000000000],%loadloss=1.522000000,%noloadloss=0.377777000
new transformer.183555 Phases=3,Windings=2,Buses=[BMT153294284.1.2.3 BBT1448490.1.2.3.0],Conns=[delta wye],kvs=[13.8 0.22],kvas=[75.000000000 75.000000000],Taps=[1,1.000000000],%loadloss=1.340000000,%noloadloss=0.340000000
new transformer.183583 Phases=1,Windings=3,Buses=[BMT153294398.3 BBT1448728.1.0 BBT1448728.0.2],Conns=[wye wye wye],kvs=[7.967 0.12 0.12],kvas=[35.000000000 35.000000000 35.000000000],Taps=[1,1.000000000,1.000000000],%loadloss=1.293000000,%noloadloss=0.342857000
new transformer.183590 Phases=1,Windings=3,Buses=[BMT153294397.3 BBT1448805.1.0 BBT1448805.0.2],Conns=[wye wye wye],kvs=[7.967 0.12 0.12],kvas=[35.000000000 35.000000000 35.000000000],Taps=[1,1.000000000,1.000000000],%loadloss=1.293000000,%noloadloss=0.342857000
new transformer.183618 Phases=3,Windings=2,Buses=[BMT129934016.1.2.3 BBT1449218.1.2.3.0],Conns=[delta wye],kvs=[13.8 0.22],kvas=[45.000000000 45.000000000],Taps=[1,1.000000000],%loadloss=1.522000000,%noloadloss=0.377777000
new transformer.183716 Phases=3,Windings=2,Buses=[BMT129933974.1.2.3 BBT1450163.1.2.3.0],Conns=[delta wye],kvs=[13.8 0.22],kvas=[75.000000000 75.000000000],Taps=[1,1.000000000],%loadloss=1.340000000,%noloadloss=0.340000000
new transformer.183814 Phases=3,Windings=2,Buses=[BMT153294282.1.2.3 BBT1450821.1.2.3.0],Conns=[delta wye],kvs=[13.8 0.22],kvas=[45.000000000 45.000000000],Taps=[1,1.000000000],%loadloss=1.522000000,%noloadloss=0.377777000
new transformer.183835 Phases=3,Windings=2,Buses=[BMT163040197.1.2.3 BBT1451017.1.2.3.0],Conns=[delta wye],kvs=[13.8 0.22],kvas=[30.000000000 30.000000000],Taps=[1,1.000000000],%loadloss=1.667000000,%noloadloss=0.433333000
new transformer.183842 Phases=3,Windings=2,Buses=[BMT129934002.1.2.3 BBT1451052.1.2.3.0],Conns=[delta wye],kvs=[13.8 0.22],kvas=[45.000000000 45.000000000],Taps=[1,1.000000000],%loadloss=1.522000000,%noloadloss=0.377777000
new transformer.183870 Phases=1,Windings=3,Buses=[BMT153294399.3 BBT1451269.1.0 BBT1451269.0.2],Conns=[wye wye wye],kvs=[7.967 0.12 0.12],kvas=[35.000000000 35.000000000 35.000000000],Taps=[1,1.000000000,1.000000000],%loadloss=1.293000000,%noloadloss=0.342857000
new transformer.183898 Phases=3,Windings=2,Buses=[BMT153294063.1.2.3 BBT1451444.1.2.3.0],Conns=[delta wye],kvs=[13.8 0.22],kvas=[45.000000000 45.000000000],Taps=[1,1.000000000],%loadloss=1.522000000,%noloadloss=0.377777000
new transformer.373787 Phases=3,Windings=2,Buses=[BMT169001185.1.2.3 BBT3233637.1.2.3.0],Conns=[delta wye],kvs=[13.8 0.22],kvas=[45.000000000 45.000000000],Taps=[1,1.000000000],%loadloss=1.522000000,%noloadloss=0.377777000
new transformer.373794 Phases=3,Windings=2,Buses=[BMT169001186.1.2.3 BBT3233686.1.2.3.0],Conns=[delta wye],kvs=[13.8 0.22],kvas=[45.000000000 45.000000000],Taps=[1,1.000000000],%loadloss=1.522000000,%noloadloss=0.377777000
new transformer.394857 Phases=3,Windings=2,Buses=[BMT102964087.1.2.3 BBT3544689.1.2.3.0],Conns=[delta wye],kvs=[13.8 0.22],kvas=[15.000000000 15.000000000],Taps=[1,1.000000000],%loadloss=1.967000000,%noloadloss=0.500000000
new transformer.394864 Phases=1,Windings=3,Buses=[BMT102964094.1 BBT3544724.1.0 BBT3544724.0.2],Conns=[wye wye wye],kvs=[7.967 0.12 0.12],kvas=[10.000000000 10.000000000 10.000000000],Taps=[1,1.000000000,1.000000000],%loadloss=1.800000000,%noloadloss=0.450000000
new transformer.394871 Phases=1,Windings=3,Buses=[BMT169942355.2 BBT3544773.1.0 BBT3544773.0.2],Conns=[wye wye wye],kvs=[7.967 0.12 0.12],kvas=[15.000000000 15.000000000 15.000000000],Taps=[1,1.000000000,1.000000000],%loadloss=1.600000000,%noloadloss=0.400000000
new transformer.395130 Phases=1,Windings=3,Buses=[BMT102964304.2 BBT3547818.1.0 BBT3547818.0.2],Conns=[wye wye wye],kvs=[7.967 0.12 0.12],kvas=[35.000000000 35.000000000 35.000000000],Taps=[1,1.000000000,1.000000000],%loadloss=1.293000000,%noloadloss=0.342857000
new transformer.1313503 Phases=3,Windings=2,Buses=[BMT162496656.1.2.3 BBT90694403.1.2.3.0],Conns=[delta wye],kvs=[13.8 0.22],kvas=[45.000000000 45.000000000],Taps=[1,1.000000000],%loadloss=1.522000000,%noloadloss=0.377777000
new transformer.1314294 Phases=3,Windings=2,Buses=[BMT163695781.1.2.3 BBT90974060.1.2.3.0],Conns=[delta wye],kvs=[13.8 0.22],kvas=[75.000000000 75.000000000],Taps=[1,1.000000000],%loadloss=1.340000000,%noloadloss=0.340000000
new transformer.134205 Phases=1,Windings=3,Buses=[BMT102964269.2 BBT1188888.1.0 BBT1188888.0.2],Conns=[wye wye wye],kvs=[7.967 0.12 0.12],kvas=[10.000000000 10.000000000 10.000000000],Taps=[1,1.000000000,1.000000000],%loadloss=1.800000000,%noloadloss=0.450000000
new transformer.1401155 Phases=3,Windings=2,Buses=[BMT150726816.1.2.3 BBT150722302.1.2.3.0],Conns=[delta wye],kvs=[13.8 0.22],kvas=[45.000000000 45.000000000],Taps=[1,1.000000000],%loadloss=1.522000000,%noloadloss=0.377777000
new transformer.179677 Phases=1,Windings=3,Buses=[BMT155361873.2 BBT1420077.1.0 BBT1420077.0.2],Conns=[wye wye wye],kvs=[7.967 0.12 0.12],kvas=[15.000000000 15.000000000 15.000000000],Taps=[1,1.000000000,1.000000000],%loadloss=1.600000000,%noloadloss=0.400000000
new transformer.179740 Phases=1,Windings=3,Buses=[BMT155361867.2 BBT1420350.1.0 BBT1420350.0.2],Conns=[wye wye wye],kvs=[7.967 0.12 0.12],kvas=[15.000000000 15.000000000 15.000000000],Taps=[1,1.000000000,1.000000000],%loadloss=1.600000000,%noloadloss=0.400000000
new transformer.179964 Phases=1,Windings=3,Buses=[BMT166130600.2 BBT1421736.1.0 BBT1421736.0.2],Conns=[wye wye wye],kvs=[7.967 0.12 0.12],kvas=[10.000000000 10.000000000 10.000000000],Taps=[1,1.000000000,1.000000000],%loadloss=1.800000000,%noloadloss=0.450000000
new transformer.179985 Phases=1,Windings=3,Buses=[BMT166130601.2 BBT1421862.1.0 BBT1421862.0.2],Conns=[wye wye wye],kvs=[7.967 0.12 0.12],kvas=[10.000000000 10.000000000 10.000000000],Taps=[1,1.000000000,1.000000000],%loadloss=1.800000000,%noloadloss=0.450000000
new transformer.180013 Phases=1,Windings=3,Buses=[BMT166130599.2 BBT1422058.1.0 BBT1422058.0.2],Conns=[wye wye wye],kvs=[7.967 0.12 0.12],kvas=[5.000000000 5.000000000 5.000000000],Taps=[1,1.000000000,1.000000000],%loadloss=1.900000000,%noloadloss=0.600000000
new transformer.180041 Phases=1,Windings=3,Buses=[BMT111809742.2 BBT1422268.1.0 BBT1422268.0.2],Conns=[wye wye wye],kvs=[7.967 0.12 0.12],kvas=[15.000000000 15.000000000 15.000000000],Taps=[1,1.000000000,1.000000000],%loadloss=1.600000000,%noloadloss=0.400000000
new transformer.180062 Phases=1,Windings=3,Buses=[BMT111809735.2 BBT1422338.1.0 BBT1422338.0.2],Conns=[wye wye wye],kvs=[7.967 0.12 0.12],kvas=[10.000000000 10.000000000 10.000000000],Taps=[1,1.000000000,1.000000000],%loadloss=1.800000000,%noloadloss=0.450000000
new transformer.180090 Phases=1,Windings=3,Buses=[BMT169942353.2 BBT1422576.1.0 BBT1422576.0.2],Conns=[wye wye wye],kvs=[7.967 0.12 0.12],kvas=[10.000000000 10.000000000 10.000000000],Taps=[1,1.000000000,1.000000000],%loadloss=1.800000000,%noloadloss=0.450000000
new transformer.180111 Phases=1,Windings=3,Buses=[BMT169942351.2 BBT1422618.1.0 BBT1422618.0.2],Conns=[wye wye wye],kvs=[7.967 0.12 0.12],kvas=[10.000000000 10.000000000 10.000000000],Taps=[1,1.000000000,1.000000000],%loadloss=1.800000000,%noloadloss=0.450000000