new line.10060961 bus1=BBT2918448.1.2.3.0,bus2=BBT2918455.1.2.3.0,Phases=3,Linecode=BT514_BT514_7_3_1,Length=0.000510000,Units=km
new line.10643186 bus1=BBT3129582.1.2.0,bus2=BBT3129589.1.2.0,Phases=2,Linecode=BT808_BT808_4_2_3,Length=0.058820000,Units=km
new line.10643200 bus1=BBT3129589.1.2.0,bus2=BBT3129610.1.2.0,Phases=2,Linecode=BT808_BT808_4_2_3,Length=0.058820000,Units=km
new line.10643249 bus1=BBT3129610.1.2.0,bus2=BBT3129624.1.2.0,Phases=2,Linecode=BT808_BT808_4_2_3,Length=0.057340000,Units=km
new line.11050215 bus1=BBT3292101.1.2.0,bus2=BBT3768647.1.2.0,Phases=2,Linecode=BT304_BT304_5_2_1,Length=0.018380000,Units=km
new line.11050236 bus1=BBT3292122.1.2.0,bus2=BBT3292129.1.2.0,Phases=2,Linecode=BT304_BT304_5_2_1,Length=0.021060000,Units=km
new line.11050243 bus1=BBT3292122.1.2.0,bus2=BBT3292136.1.2.0,Phases=2,Linecode=BT304_BT304_5_2_1,Length=0.013350000,Units=km
new line.11050271 bus1=BBT3292115.1.2.0,bus2=BBT3768640.1.2.0,Phases=2,Linecode=BT304_BT304_5_2_1,Length=0.009070000,Units=km
new line.11066525 bus1=BBT3300172.1.2.3.0,bus2=BBT3300179.1.2.3.0,Phases=3,Linecode=BT803_BT803_4_3_4,Length=0.043430000,Units=km
new line.11066546 bus1=BBT3300179.1.2.3.0,bus2=BBT3300186.1.2.3.0,Phases=3,Linecode=BT803_BT803_4_3_4,Length=0.034840000,Units=km
new line.11066567 bus1=BBT3300186.1.2.3.0,bus2=BBT3300193.1.2.3.0,Phases=3,Linecode=BT803_BT803_4_3_4,Length=0.037030000,Units=km
new line.11066602 bus1=BBT3300193.1.2.3.0,bus2=BBT4361253.1.2.3.0,Phases=3,Linecode=BT810_BT810_4_3_4,Length=0.046880000,Units=km
new line.11694425 bus1=BBT3519104.1.2.0,bus2=BBT3519111.1.2.0,Phases=2,Linecode=BT505_BT505_7_2_1,Length=0.000510000,Units=km
new line.12105325 bus1=BBT3658859.1.2.3.0,bus2=BBT3658866.1.2.3.0,Phases=3,Linecode=BT803_BT803_4_3_4,Length=0.044120000,Units=km
new line.12105346 bus1=BBT3658873.1.2.3.0,bus2=BBT4050544.1.2.3.0,Phases=3,Linecode=BT803_BT803_4_3_4,Length=0.038610000,Units=km
new line.12144616 bus1=BBT3673685.1.2.0,bus2=BBT3673706.1.2.0,Phases=2,Linecode=BT808_BT808_4_2_3,Length=0.044030000,Units=km
new line.12144623 bus1=BBT3673678.1.2.0,bus2=BBT3673685.1.2.0,Phases=2,Linecode=BT518_BT518_7_2_1,Length=0.000510000,Units=km
new line.12144630 bus1=BBT3673685.1.2.0,bus2=BBT3673699.1.2.0,Phases=2,Linecode=BT808_BT808_4_2_3,Length=0.045120000,Units=km
new line.12144658 bus1=BBT3673699.1.2.0,bus2=BBT4935421.1.2.0,Phases=2,Linecode=BT808_BT808_4_2_3,Length=0.040280000,Units=km
new line.12144665 bus1=BBT3673713.1.2.0,bus2=BBT3673734.1.2.0,Phases=2,Linecode=BT808_BT808_4_2_3,Length=0.046020000,Units=km
new line.12144672 bus1=BBT3673713.1.2.0,bus2=BBT3673727.1.2.0,Phases=2,Linecode=BT808_BT808_4_2_3,Length=0.045290000,Units=km
new line.12144686 bus1=BBT3673734.1.2.0,bus2=BBT4269119.1.2.0,Phases=2,Linecode=BT808_BT808_4_2_3,Length=0.060020000,Units=km
new line.13245982 bus1=BBT4132157.1.2.0,bus2=BBT4132171.1.2.0,Phases=2,Linecode=BT801_BT801_4_2_3,Length=0.029740000,Units=km
new line.13246003 bus1=BBT4132171.1.2.0,bus2=BBT4156797.1.2.0,Phases=2,Linecode=BT808_BT808_4_2_3,Length=0.039860000,Units=km
new line.13264133 bus1=BBT4140200.1.2.3.0,bus2=BBT4140207.1.2.3.0,Phases=3,Linecode=BT514_BT514_7_3_1,Length=0.000510000,Units=km
new line.13282466 bus1=BBT4146955.1.2.3.0,bus2=BBT4146983.1.2.3.0,Phases=3,Linecode=BT810_BT810_4_3_4,Length=0.043850000,Units=km
new line.13282473 bus1=BBT4146955.1.2.3.0,bus2=BBT4146962.1.2.3.0,Phases=3,Linecode=BT810_BT810_4_3_4,Length=0.038450000,Units=km
new line.13282501 bus1=BBT4146983.1.2.0,bus2=BBT12353007.1.2.0,Phases=2,Linecode=BT810_BT810_4_2_4,Length=0.045670000,Units=km
new line.13282536 bus1=BBT4146948.1.2.3.0,bus2=BBT4146955.1.2.3.0,Phases=3,Linecode=BT810_BT810_4_3_4,Length=0.036910000,Units=km
new line.13282557 bus1=BBT4146752.1.2.3.0,bus2=BBT4146948.1.2.3.0,Phases=3,Linecode=BT810_BT810_4_3_4,Length=0.037050000,Units=km
new line.13282571 bus1=BBT4146745.1.2.3.0,bus2=BBT4146752.1.2.3.0,Phases=3,Linecode=BT810_BT810_4_3_4,Length=0.036730000,Units=km
new line.13282606 bus1=BBT4146738.1.2.3.0,bus2=BBT4146745.1.2.3.0,Phases=3,Linecode=BT810_BT810_4_3_4,Length=0.038030000,Units=km
new line.13282620 bus1=BBT4146731.1.2.3.0,bus2=BBT4146738.1.2.3.0,Phases=3,Linecode=BT810_BT810_4_3_4,Length=0.038960000,Units=km
new line.13282627 bus1=BBT4146724.1.2.3.0,bus2=BBT4146731.1.2.3.0,Phases=3,Linecode=BT810_BT810_4_3_4,Length=0.042500000,Units=km
new line.13677756 bus1=BBT4358159.1.2.3.0,bus2=BBT4358166.1.2.3.0,Phases=3,Linecode=BT513_BT513_7_3_1,Length=0.000510000,Units=km
new line.13679338 bus1=BBT4361260.1.2.3.0,bus2=BBT152926937.1.2.3.0,Phases=3,Linecode=BT810_BT810_4_3_4,Length=0.040330000,Units=km
new line.13692092 bus1=BBT4376828.1.2.0,bus2=BBT4376835.1.2.0,Phases=2,Linecode=BT808_BT808_4_2_3,Length=0.044030000,Units=km
new line.14119757 bus1=BBT4947650.1.2.3.0,bus2=BBT1472073.1.2.3.0,Phases=3,Linecode=BT106_BT108_7_3_1,Length=0.015560000,Units=km
new line.14119764 bus1=BBT4947650.1.2.3.0,bus2=BBT4947727.1.2.3.0,Phases=3,Linecode=BT810_BT810_4_3_4,Length=0.031060000,Units=km
new line.14119778 bus1=BBT4947727.1.2.3.0,bus2=BBT4947734.1.2.3.0,Phases=3,Linecode=BT810_BT810_4_3_4,Length=0.029620000,Units=km
new line.14119792 bus1=BBT4947734.1.2.3.0,bus2=BBT4947741.1.2.3.0,Phases=3,Linecode=BT810_BT810_4_3_4,Length=0.029440000,Units=km
new line.14119841 bus1=BBT4947888.1.2.3.0,bus2=BBT4947895.1.2.3.0,Phases=3,Linecode=BT810_BT810_4_3_4,Length=0.035710000,Units=km
new line.14119869 bus1=BBT4947881.1.2.3.0,bus2=BBT4947888.1.2.3.0,Phases=3,Linecode=BT810_BT810_4_3_4,Length=0.045140000,Units=km
new line.14119918 bus1=BBT4947755.1.2.3.0,bus2=BBT4947762.1.2.3.0,Phases=3,Linecode=BT514_BT514_7_3_1,Length=0.000510000,Units=km
new line.14126617 bus1=BBT4963295.1.2.0,bus2=BBT4963330.1.2.0,Phases=2,Linecode=BT808_BT808_4_2_3,Length=0.038340000,Units=km
new line.14143179 bus1=BBT5016992.1.2.0,bus2=BBT3609628.1.2.0,Phases=2,Linecode=BT807_BT807_4_2_3,Length=0.046520000,Units=km
new line.14143193 bus1=BBT5016999.1.2.0,bus2=BBT3609600.1.2.0,Phases=2,Linecode=BT807_BT807_4_2_3,Length=0.037960000,Units=km
new line.14143200 bus1=BBT5017006.1.2.0,bus2=BBT3609593.1.2.0,Phases=2,Linecode=BT807_BT807_4_2_3,Length=0.038030000,Units=km
new line.14143214 bus1=BBT5017013.1.2.0,bus2=BBT3609586.1.2.0,Phases=2,Linecode=BT807_BT807_4_2_3,Length=0.043400000,Units=km
new line.14143221 bus1=BBT5017020.1.2.0,bus2=BBT3609579.1.2.0,Phases=2,Linecode=BT107_BT107_7_2_1,Length=0.046080000,Units=km
new line.14143235 bus1=BBT5017027.1.2.0,bus2=BBT3609572.1.2.0,Phases=2,Linecode=BT107_BT107_7_2_1,Length=0.045630000,Units=km
new line.14143249 bus1=BBT5017034.1.2.0,bus2=BBT3609565.1.2.0,Phases=2,Linecode=BT107_BT107_7_2_1,Length=0.041160000,Units=km
new line.14143312 bus1=BBT5017181.1.2.3.0,bus2=BBT5017188.1.2.3.0,Phases=3,Linecode=BT518_BT518_7_3_1,Length=0.000510000,Units=km
new line.14150648 bus1=BBT5029935.1.2.3.0,bus2=BBT12160269.1.2.3.0,Phases=3,Linecode=BT803_BT803_4_3_4,Length=0.029620000,Units=km
new line.14150662 bus1=BBT5029893.1.2.3.0,bus2=BBT5029935.1.2.3.0,Phases=3,Linecode=BT803_BT803_4_3_4,Length=0.036690000,Units=km
new line.14150669 bus1=BBT5029886.1.2.3.0,bus2=BBT5029893.1.2.3.0,Phases=3,Linecode=BT513_BT513_7_3_1,Length=0.000510000,Units=km
new line.14150676 bus1=BBT5029893.1.2.3.0,bus2=BBT5029963.1.2.3.0,Phases=3,Linecode=BT803_BT803_4_3_4,Length=0.036690000,Units=km
new line.14150690 bus1=BBT5029963.1.2.3.0,bus2=BBT5029970.1.2.3.0,Phases=3,Linecode=BT803_BT803_4_3_4,Length=0.040620000,Units=km
new line.13303214 bus1=BBT4156769.1.2.0,bus2=BBT4156776.1.2.0,Phases=2,Linecode=BT808_BT808_4_2_3,Length=0.042740000,Units=km
new line.13303242 bus1=BBT4156776.1.2.0,bus2=BBT4156783.1.2.0,Phases=2,Linecode=BT808_BT808_4_2_3,Length=0.044940000,Units=km
new line.13303501 bus1=BBT4156797.1.2.0,bus2=BBT4156804.1.2.0,Phases=2,Linecode=BT808_BT808_4_2_3,Length=0.039860000,Units=km
new line.13303634 bus1=BBT4156783.1.2.0,bus2=BBT4156790.1.2.0,Phases=2,Linecode=BT808_BT808_4_2_3,Length=0.045240000,Units=km
new line.13775623 bus1=BBT4479112.1.2.0,bus2=BBT4479119.1.2.0,Phases=2,Linecode=BT808_BT808_4_2_3,Length=0.020620000,Units=km
new line.17343719 bus1=BBT4079923.1.2.3.0,bus2=BBT79641739.1.2.3.0,Phases=3,Linecode=BT803_BT803_4_3_4,Length=0.025610000,Units=km
new line.17343740 bus1=BBT4079923.1.2.3.0,bus2=BBT116908983.1.2.3.0,Phases=3,Linecode=BT803_BT803_4_3_4,Length=0.012230000,Units=km
new line.17343775 bus1=BBT79641746.1.2.3.0,bus2=BBT79641956.1.2.3.0,Phases=3,Linecode=BT803_BT803_4_3_4,Length=0.027710000,Units=km
new line.17939643 bus1=BBT94150590.1.2.0,bus2=BBT94150597.1.2.0,Phases=2,Linecode=BT518_BT518_7_2_1,Length=0.000510000,Units=km
new line.17939650 bus1=BBT94150597.1.2.0,bus2=BBT94150604.1.2.0,Phases=2,Linecode=BT808_BT808_4_2_3,Length=0.028330000,Units=km
new line.18476144 bus1=BBT129930159.1.2.3.0,bus2=BBT129930166.1.2.3.0,Phases=3,Linecode=BT518_BT518_7_3_1,Length=0.000510000,Units=km
new line.18476235 bus1=BBT129930166.1.2.3.0,bus2=BBT129932245.1.2.3.0,Phases=3,Linecode=BT513_BT513_5_3_1,Length=0.004000000,Units=km
new line.18476305 bus1=BBT129932245.1.2.3.0,bus2=BBT129934100.1.2.3.0,Phases=3,Linecode=BT513_BT513_5_3_1,Length=0.014010000,Units=km
new line.18476333 bus1=BBT129934100.1.2.3.0,bus2=BBT129934289.1.2.3.0,Phases=3,Linecode=BT503_BT503_5_3_1,Length=0.029440000,Units=km
new line.18476347 bus1=BBT129934289.2.3.0,bus2=BBT129934723.2.3.0,Phases=2,Linecode=BT503_BT503_5_2_1,Length=0.005000000,Units=km
new line.18476361 bus1=BBT129934289.1.2.0,bus2=BBT129934821.1.2.0,Phases=2,Linecode=BT503_BT503_5_2_1,Length=0.029710000,Units=km
new line.18476375 bus1=BBT129934821.1.2.0,bus2=BBT129935031.1.2.0,Phases=2,Linecode=BT503_BT503_5_2_1,Length=0.004250000,Units=km
new line.18476396 bus1=BBT129934100.1.2.3.0,bus2=BBT129938419.1.2.3.0,Phases=3,Linecode=BT518_BT518_5_3_1,Length=0.014570000,Units=km
new line.18476424 bus1=BBT129938419.1.3.0,bus2=BBT129939413.1.3.0,Phases=2,Linecode=BT518_BT518_5_2_1,Length=0.004470000,Units=km
new line.18476431 bus1=BBT129938419.1.2.3.0,bus2=BBT129939497.1.2.3.0,Phases=3,Linecode=BT518_BT518_5_3_1,Length=0.038650000,Units=km
new line.18476438 bus1=BBT129934100.1.2.3.0,bus2=BBT129939532.1.2.3.0,Phases=3,Linecode=BT518_BT518_5_3_1,Length=0.023350000,Units=km
new line.18476445 bus1=BBT129939497.1.2.0,bus2=BBT129939567.1.2.0,Phases=2,Linecode=BT518_BT518_5_2_1,Length=0.004470000,Units=km
new line.18476452 bus1=BBT129939497.1.2.3.0,bus2=BBT129939644.1.2.3.0,Phases=3,Linecode=BT518_BT518_5_3_1,Length=0.042960000,Units=km
new line.18476459 bus1=BBT129939644.1.2.3.0,bus2=BBT129939952.1.2.3.0,Phases=3,Linecode=BT518_BT518_5_3_1,Length=0.037550000,Units=km
new line.18476466 bus1=BBT129939644.2.3.0,bus2=BBT129940036.2.3.0,Phases=2,Linecode=BT518_BT518_5_2_1,Length=0.005000000,Units=km
new line.18476487 bus1=BBT129939952.1.3.0,bus2=BBT129941198.1.3.0,Phases=2,Linecode=BT518_BT518_5_2_1,Length=0.004250000,Units=km
new line.18476494 bus1=BBT129939952.1.2.3.0,bus2=BBT129941205.1.2.3.0,Phases=3,Linecode=BT518_BT518_5_3_1,Length=0.014870000,Units=km
new line.18476501 bus1=BBT129941205.1.2.3.0,bus2=BBT129941268.1.2.3.0,Phases=3,Linecode=BT518_BT518_5_3_1,Length=0.020890000,Units=km
new line.18476515 bus1=BBT129941205.1.2.3.0,bus2=BBT129941394.1.2.3.0,Phases=3,Linecode=BT505_BT505_5_3_1,Length=0.030240000,Units=km
new line.18476522 bus1=BBT129941394.1.2.0,bus2=BBT129941401.1.2.0,Phases=2,Linecode=BT505_BT505_5_2_1,Length=0.004470000,Units=km
new line.18476529 bus1=BBT129941394.1.2.3.0,bus2=BBT129941408.1.2.3.0,Phases=3,Linecode=BT505_BT505_5_3_1,Length=0.051640000,Units=km
new line.18476543 bus1=BBT129941408.2.3.0,bus2=BBT129941597.2.3.0,Phases=2,Linecode=BT505_BT505_5_2_1,Length=0.004130000,Units=km
new line.18476550 bus1=BBT129941408.1.2.3.0,bus2=BBT129941800.1.2.3.0,Phases=3,Linecode=BT505_BT505_5_3_1,Length=0.050180000,Units=km
new line.18476557 bus1=BBT129941800.1.3.0,bus2=BBT129941870.1.3.0,Phases=2,Linecode=BT505_BT505_5_2_1,Length=0.004000000,Units=km
new line.18476564 bus1=BBT129941800.1.2.3.0,bus2=BBT129941877.1.2.3.0,Phases=3,Linecode=BT505_BT505_5_3_1,Length=0.050270000,Units=km
new line.18476571 bus1=BBT129941877.2.3.0,bus2=BBT129941884.2.3.0,Phases=2,Linecode=BT505_BT505_5_2_1,Length=0.005000000,Units=km
new line.18476578 bus1=BBT129941877.1.2.3.0,bus2=BBT129941891.1.2.3.0,Phases=3,Linecode=BT503_BT503_5_3_1,Length=0.054350000,Units=km
new line.18476585 bus1=BBT129941891.1.3.0,bus2=BBT129941898.1.3.0,Phases=2,Linecode=BT503_BT503_5_2_1,Length=0.004000000,Units=km
new line.18476613 bus1=BBT129941891.1.2.0,bus2=BBT129944362.1.2.0,Phases=2,Linecode=BT503_BT503_5_2_1,Length=0.056600000,Units=km
new line.18476620 bus1=BBT129944362.1.2.0,bus2=BBT129944369.1.2.0,Phases=2,Linecode=BT503_BT503_5_2_1,Length=0.004000000,Units=km
new line.18476627 bus1=BBT129941268.1.2.0,bus2=BBT129944376.1.2.0,Phases=2,Linecode=BT518_BT518_5_2_1,Length=0.005000000,Units=km
new line.18476634 bus1=BBT129941268.1.2.3.0,bus2=BBT129944383.1.2.3.0,Phases=3,Linecode=BT518_BT518_5_3_1,Length=0.032030000,Units=km
new line.18476641 bus1=BBT129941268.2.3.0,bus2=BBT129944390.2.3.0,Phases=2,Linecode=BT503_BT503_5_2_1,Length=0.038010000,Units=km
new line.18476648 bus1=BBT129944390.2.3.0,bus2=BBT129944397.2.3.0,Phases=2,Linecode=BT503_BT503_5_2_1,Length=0.004000000,Units=km
new line.18476655 bus1=BBT129944383.1.2.3.0,bus2=BBT129944404.1.2.3.0,Phases=3,Linecode=BT521_BT521_5_3_1,Length=0.015040000,Units=km
new line.18476662 bus1=BBT129944404.1.2.3.0,bus2=BBT129944411.1.2.3.0,Phases=3,Linecode=BT521_BT521_5_3_1,Length=0.004000000,Units=km
new line.18476669 bus1=BBT129944411.1.2.3.0,bus2=BBT129944418.1.2.3.0,Phases=3,Linecode=BT521_BT521_5_3_1,Length=0.045030000,Units=km
new line.18476676 bus1=BBT129944418.1.2.3.0,bus2=BBT129944425.1.2.3.0,Phases=3,Linecode=BT521_BT521_5_3_1,Length=0.004000000,Units=km
new line.18476683 bus1=BBT129944425.1.2.3.0,bus2=BBT129944432.1.2.3.0,Phases=3,Linecode=BT521_BT521_5_3_1,Length=0.050030000,Units=km
new line.18476690 bus1=BBT129944432.1.2.3.0,bus2=BBT129944439.1.2.3.0,Phases=3,Linecode=BT521_BT521_5_3_1,Length=0.004000000,Units=km
new line.18476697 bus1=BBT129944439.1.2.3.0,bus2=BBT129944446.1.2.3.0,Phases=3,Linecode=BT521_BT521_5_3_1,Length=0.042030000,Units=km
new line.18476704 bus1=BBT129944446.1.2.3.0,bus2=BBT129944453.1.2.3.0,Phases=3,Linecode=BT521_BT521_5_3_1,Length=0.004000000,Units=km
new line.18476711 bus1=BBT129944453.1.2.3.0,bus2=BBT129944460.1.2.3.0,Phases=3,Linecode=BT505_BT505_5_3_1,Length=0.051500000,Units=km
new line.18476718 bus1=BBT129944460.1.2.3.0,bus2=BBT129944467.1.2.3.0,Phases=3,Linecode=BT505_BT505_5_3_1,Length=0.004000000,Units=km
new line.18476725 bus1=BBT129944467.1.2.3.0,bus2=BBT129944474.1.2.3.0,Phases=3,Linecode=BT505_BT505_5_3_1,Length=0.045720000,Units=km
new line.18476732 bus1=BBT129944474.1.2.3.0,bus2=BBT129944481.1.2.3.0,Phases=3,Linecode=BT505_BT505_5_3_1,Length=0.004000000,Units=km
new line.18476739 bus1=BBT129944481.1.3.0,bus2=BBT129944488.1.3.0,Phases=2,Linecode=BT503_BT503_5_2_1,Length=0.045390000,Units=km
new line.18476746 bus1=BBT129944488.1.3.0,bus2=BBT129944495.1.3.0,Phases=2,Linecode=BT503_BT503_5_2_1,Length=0.004010000,Units=km
new line.18476753 bus1=BBT129944383.1.2.3.0,bus2=BBT129944502.1.2.3.0,Phases=3,Linecode=BT521_BT521_5_3_1,Length=0.030030000,Units=km
new line.18476760 bus1=BBT129944502.1.2.3.0,bus2=BBT129944509.1.2.3.0,Phases=3,Linecode=BT521_BT521_5_3_1,Length=0.004000000,Units=km
new line.18476767 bus1=BBT129944509.1.2.3.0,bus2=BBT129944516.1.2.3.0,Phases=3,Linecode=BT521_BT521_5_3_1,Length=0.045040000,Units=km
new line.18476774 bus1=BBT129944516.1.2.3.0,bus2=BBT129944523.1.2.3.0,Phases=3,Linecode=BT521_BT521_5_3_1,Length=0.004010000,Units=km
new line.18476781 bus1=BBT129944516.1.2.3.0,bus2=BBT129944530.1.2.3.0,Phases=3,Linecode=BT505_BT505_5_3_1,Length=0.019740000,Units=km
new line.18476788 bus1=BBT129944530.1.2.3.0,bus2=BBT129944537.1.2.3.0,Phases=3,Linecode=BT505_BT505_5_3_1,Length=0.030910000,Units=km
new line.18476802 bus1=BBT129944523.1.2.3.0,bus2=BBT129944551.1.2.3.0,Phases=3,Linecode=BT505_BT505_5_3_1,Length=0.045060000,Units=km
new line.18476809 bus1=BBT129944551.1.2.3.0,bus2=BBT129944558.1.2.3.0,Phases=3,Linecode=BT505_BT505_5_3_1,Length=0.004010000,Units=km
new line.18476816 bus1=BBT129944558.2.3.0,bus2=BBT129944565.2.3.0,Phases=2,Linecode=BT503_BT503_5_2_1,Length=0.046070000,Units=km
new line.18476823 bus1=BBT129944565.2.3.0,bus2=BBT129944572.2.3.0,Phases=2,Linecode=BT503_BT503_5_2_1,Length=0.004000000,Units=km
new line.18476830 bus1=BBT129944537.1.2.0,bus2=BBT129944579.1.2.0,Phases=2,Linecode=BT505_BT505_5_2_1,Length=0.004250000,Units=km
new line.18476837 bus1=BBT129944537.1.2.3.0,bus2=BBT129944586.1.2.3.0,Phases=3,Linecode=BT503_BT503_5_3_1,Length=0.050630000,Units=km
new line.18476844 bus1=BBT129944586.1.3.0,bus2=BBT129944593.1.3.0,Phases=2,Linecode=BT503_BT503_5_2_1,Length=0.004600000,Units=km
new line.18476851 bus1=BBT129944586.1.2.3.0,bus2=BBT129944600.1.2.3.0,Phases=3,Linecode=BT503_BT503_5_3_1,Length=0.049560000,Units=km
new line.18476858 bus1=BBT129944600.2.3.0,bus2=BBT129944607.2.3.0,Phases=2,Linecode=BT503_BT503_5_2_1,Length=0.003700000,Units=km
new line.18476879 bus1=BBT129939532.1.2.3.0,bus2=BBT129944628.1.2.3.0,Phases=3,Linecode=BT518_BT518_5_3_1,Length=0.015660000,Units=km
new line.18476886 bus1=BBT129944628.1.2.3.0,bus2=BBT129944635.1.2.3.0,Phases=3,Linecode=BT521_BT521_5_3_1,Length=0.003610000,Units=km
new line.18476893 bus1=BBT129944628.1.2.3.0,bus2=BBT129944642.1.2.3.0,Phases=3,Linecode=BT521_BT521_5_3_1,Length=0.045240000,Units=km
new line.18476900 bus1=BBT129944635.1.2.3.0,bus2=BBT129944649.1.2.3.0,Phases=3,Linecode=BT503_BT503_5_3_1,Length=0.043400000,Units=km
new line.18476907 bus1=BBT129944649.1.2.3.0,bus2=BBT129944656.1.2.3.0,Phases=3,Linecode=BT503_BT503_5_3_1,Length=0.003610000,Units=km
new line.18476914 bus1=BBT129944656.1.2.3.0,bus2=BBT129944663.1.2.3.0,Phases=3,Linecode=BT503_BT503_5_3_1,Length=0.044300000,Units=km
new line.18476921 bus1=BBT129944663.1.2.3.0,bus2=BBT129944670.1.2.3.0,Phases=3,Linecode=BT503_BT503_5_3_1,Length=0.003610000,Units=km
new line.18476928 bus1=BBT129944670.1.2.0,bus2=BBT129944677.1.2.0,Phases=2,Linecode=BT503_BT503_5_2_1,Length=0.035350000,Units=km
new line.18476935 bus1=BBT129944677.1.2.0,bus2=BBT129944684.1.2.0,Phases=2,Linecode=BT503_BT503_5_2_1,Length=0.005000000,Units=km
new line.18476963 bus1=BBT129944628.1.2.3.0,bus2=BBT129945321.1.2.3.0,Phases=3,Linecode=BT503_BT503_5_3_1,Length=0.030420000,Units=km
new line.18476970 bus1=BBT129945321.1.2.0,bus2=BBT129945328.1.2.0,Phases=2,Linecode=BT503_BT503_5_2_1,Length=0.023270000,Units=km
new line.18476977 bus1=BBT129945328.1.2.0,bus2=BBT129945335.1.2.0,Phases=2,Linecode=BT503_BT503_5_2_1,Length=0.004470000,Units=km
new line.18476984 bus1=BBT129945321.1.2.3.0,bus2=BBT129945342.1.2.3.0,Phases=3,Linecode=BT503_BT503_5_3_1,Length=0.013900000,Units=km
new line.18476991 bus1=BBT129945342.1.3.0,bus2=BBT129945349.1.3.0,Phases=2,Linecode=BT503_BT503_5_2_1,Length=0.038090000,Units=km
new line.18476998 bus1=BBT129945342.2.3.0,bus2=BBT129945356.2.3.0,Phases=2,Linecode=BT503_BT503_5_2_1,Length=0.005000000,Units=km
new line.18477005 bus1=BBT129945349.1.3.0,bus2=BBT129945363.1.3.0,Phases=2,Linecode=BT503_BT503_5_2_1,Length=0.004470000,Units=km
new line.18477019 bus1=BBT129939532.1.2.3.0,bus2=BBT129945475.1.2.3.0,Phases=3,Linecode=BT505_BT505_5_3_1,Length=0.029740000,Units=km
new line.18477026 bus1=BBT129945475.1.2.0,bus2=BBT129945482.1.2.0,Phases=2,Linecode=BT505_BT505_5_2_1,Length=0.004470000,Units=km
new line.18477033 bus1=BBT129945475.1.2.3.0,bus2=BBT129945489.1.2.3.0,Phases=3,Linecode=BT505_BT505_5_3_1,Length=0.031780000,Units=km
new line.18477040 bus1=BBT129945489.2.3.0,bus2=BBT129945496.2.3.0,Phases=2,Linecode=BT505_BT505_5_2_1,Length=0.004470000,Units=km
new line.18477047 bus1=BBT129945489.1.2.3.0,bus2=BBT129945601.1.2.3.0,Phases=3,Linecode=BT505_BT505_5_3_1,Length=0.032320000,Units=km
new line.18477054 bus1=BBT129945601.1.3.0,bus2=BBT129945608.1.3.0,Phases=2,Linecode=BT505_BT505_5_2_1,Length=0.004470000,Units=km
new line.18477061 bus1=BBT129945601.1.2.3.0,bus2=BBT129945713.1.2.3.0,Phases=3,Linecode=BT503_BT503_5_3_1,Length=0.030420000,Units=km
new line.18477068 bus1=BBT129945713.1.2.3.0,bus2=BBT129945720.1.2.3.0,Phases=3,Linecode=BT503_BT503_5_3_1,Length=0.027210000,Units=km
new line.18477075 bus1=BBT129945713.1.2.0,bus2=BBT129945825.1.2.0,Phases=2,Linecode=BT503_BT503_5_2_1,Length=0.004130000,Units=km
new line.18477082 bus1=BBT129945720.2.3.0,bus2=BBT129945832.2.3.0,Phases=2,Linecode=BT503_BT503_5_2_1,Length=0.004130000,Units=km
new line.18477089 bus1=BBT129945720.1.2.3.0,bus2=BBT129945839.1.2.3.0,Phases=3,Linecode=BT503_BT503_5_3_1,Length=0.040030000,Units=km
new line.18477096 bus1=BBT129945839.1.3.0,bus2=BBT129945846.1.3.0,Phases=2,Linecode=BT503_BT503_5_2_1,Length=0.005000000,Units=km
new line.18477103 bus1=BBT129945839.1.2.0,bus2=BBT129945853.1.2.0,Phases=2,Linecode=BT503_BT503_5_2_1,Length=0.046060000,Units=km
new line.18477110 bus1=BBT129945853.1.2.0,bus2=BBT129945860.1.2.0,Phases=2,Linecode=BT503_BT503_5_2_1,Length=0.004000000,Units=km
new line.18477117 bus1=BBT129944642.1.2.3.0,bus2=BBT129946021.1.2.3.0,Phases=3,Linecode=BT521_BT521_5_3_1,Length=0.004250000,Units=km
new line.18477124 bus1=BBT129946021.1.2.3.0,bus2=BBT129946028.1.2.3.0,Phases=3,Linecode=BT521_BT521_5_3_1,Length=0.026920000,Units=km
new line.18477131 bus1=BBT129946028.1.2.3.0,bus2=BBT129946077.1.2.3.0,Phases=3,Linecode=BT521_BT521_5_3_1,Length=0.029080000,Units=km
new line.18477138 bus1=BBT129946077.1.2.3.0,bus2=BBT129946084.1.2.3.0,Phases=3,Linecode=BT521_BT521_5_3_1,Length=0.005000000,Units=km
new line.18477145 bus1=BBT129946084.1.2.3.0,bus2=BBT129946091.1.2.3.0,Phases=3,Linecode=BT505_BT505_5_3_1,Length=0.050500000,Units=km
new line.18477152 bus1=BBT129946091.1.2.3.0,bus2=BBT129946098.1.2.3.0,Phases=3,Linecode=BT505_BT505_5_3_1,Length=0.004250000,Units=km
new line.18477159 bus1=BBT129946098.1.2.3.0,bus2=BBT129946105.1.2.3.0,Phases=3,Linecode=BT505_BT505_5_3_1,Length=0.045200000,Units=km
new line.18477166 bus1=BBT129946105.1.2.3.0,bus2=BBT129946112.1.2.3.0,Phases=3,Linecode=BT505_BT505_5_3_1,Length=0.003610000,Units=km
new line.18477173 bus1=BBT129946112.1.2.3.0,bus2=BBT129946119.1.2.3.0,Phases=3,Linecode=BT503_BT503_5_3_1,Length=0.026430000,Units=km
new line.18477180 bus1=BBT129946119.1.2.3.0,bus2=BBT129946175.1.2.3.0,Phases=3,Linecode=BT503_BT503_5_3_1,Length=0.004530000,Units=km
new line.18477208 bus1=BBT129946028.1.2.3.0,bus2=BBT129947106.1.2.3.0,Phases=3,Linecode=BT503_BT503_5_3_1,Length=0.024750000,Units=km
new line.18477215 bus1=BBT129947106.2.3.0,bus2=BBT129947141.2.3.0,Phases=2,Linecode=BT503_BT503_5_2_1,Length=0.019860000,Units=km
new line.18477222 bus1=BBT129947106.1.2.0,bus2=BBT129947260.1.2.0,Phases=2,Linecode=BT503_BT503_5_2_1,Length=0.004130000,Units=km
new line.18477229 bus1=BBT129947141.2.3.0,bus2=BBT129947267.2.3.0,Phases=2,Linecode=BT503_BT503_5_2_1,Length=0.004250000,Units=km
new line.18477236 bus1=BBT129944600.1.3.0,bus2=BBT129947652.1.3.0,Phases=2,Linecode=BT503_BT503_5_2_1,Length=0.042860000,Units=km
new line.18477250 bus1=BBT129947652.1.3.0,bus2=BBT129948226.1.3.0,Phases=2,Linecode=BT503_BT503_5_2_1,Length=0.003610000,Units=km
new line.18477285 bus1=BBT129946175.1.2.3.0,bus2=BBT129949801.1.2.3.0,Phases=3,Linecode=BT503_BT503_5_3_1,Length=0.050630000,Units=km
new line.18477299 bus1=BBT129949801.1.2.3.0,bus2=BBT129949969.1.2.3.0,Phases=3,Linecode=BT503_BT503_5_3_1,Length=0.004480000,Units=km
new line.18477334 bus1=BBT129949969.1.2.0,bus2=BBT129950277.1.2.0,Phases=2,Linecode=BT503_BT503_5_2_1,Length=0.049920000,Units=km
new line.18477355 bus1=BBT129950277.1.2.0,bus2=BBT129950382.1.2.0,Phases=2,Linecode=BT503_BT503_5_2_1,Length=0.004130000,Units=km
new line.18478300 bus1=BBT129997919.1.2.3.0,bus2=BBT129997926.1.2.3.0,Phases=3,Linecode=BT518_BT518_7_3_1,Length=0.000510000,Units=km
new line.18478307 bus1=BBT129997926.1.2.3.0,bus2=BBT129998444.1.2.3.0,Phases=3,Linecode=BT513_BT513_5_3_1,Length=0.004130000,Units=km
new line.18478412 bus1=BBT129998444.1.2.3.0,bus2=BBT129998605.1.2.3.0,Phases=3,Linecode=BT513_BT513_5_3_1,Length=0.012000000,Units=km
new line.18478419 bus1=BBT129998605.1.2.3.0,bus2=BBT129999347.1.2.3.0,Phases=3,Linecode=BT521_BT521_5_3_1,Length=0.010000000,Units=km
new line.18478426 bus1=BBT129999347.1.2.3.0,bus2=BBT130000355.1.2.3.0,Phases=3,Linecode=BT521_BT521_5_3_1,Length=0.004000000,Units=km
new line.18478433 bus1=BBT130000355.1.2.3.0,bus2=BBT130000502.1.2.3.0,Phases=3,Linecode=BT521_BT521_5_3_1,Length=0.051110000,Units=km
new line.18478440 bus1=BBT130000502.1.2.3.0,bus2=BBT130000509.1.2.3.0,Phases=3,Linecode=BT521_BT521_5_3_1,Length=0.004000000,Units=km
new line.18478475 bus1=BBT1448462.1.2.0,bus2=BBT130004142.1.2.0,Phases=2,Linecode=BT808_BT808_4_2_3,Length=0.031630000,Units=km
new line.18478755 bus1=BBT129998605.1.2.3.0,bus2=BBT130024239.1.2.3.0,Phases=3,Linecode=BT521_BT521_5_3_1,Length=0.045020000,Units=km
new line.18478762 bus1=BBT130024239.1.2.3.0,bus2=BBT130025345.1.2.3.0,Phases=3,Linecode=BT521_BT521_5_3_1,Length=0.004000000,Units=km
new line.18478769 bus1=BBT130025345.1.2.3.0,bus2=BBT130025366.1.2.3.0,Phases=3,Linecode=BT503_BT503_5_3_1,Length=0.046060000,Units=km
new line.18478776 bus1=BBT130025366.1.2.3.0,bus2=BBT130025492.1.2.3.0,Phases=3,Linecode=BT503_BT503_5_3_1,Length=0.004000000,Units=km
new line.18478783 bus1=BBT130025492.1.2.3.0,bus2=BBT130025583.1.2.3.0,Phases=3,Linecode=BT503_BT503_5_3_1,Length=0.045120000,Units=km
new line.18478790 bus1=BBT130025583.1.2.3.0,bus2=BBT130025632.1.2.3.0,Phases=3,Linecode=BT503_BT503_5_3_1,Length=0.004000000,Units=km
new line.18478797 bus1=BBT130025632.2.3.0,bus2=BBT130025821.2.3.0,Phases=2,Linecode=BT503_BT503_5_2_1,Length=0.046190000,Units=km
new line.18478804 bus1=BBT130025821.2.3.0,bus2=BBT130025828.2.3.0,Phases=2,Linecode=BT503_BT503_5_2_1,Length=0.004130000,Units=km
new line.18478818 bus1=BBT129998605.1.2.3.0,bus2=BBT130026024.1.2.3.0,Phases=3,Linecode=BT521_BT521_5_3_1,Length=0.021010000,Units=km
new line.18478825 bus1=BBT130026024.1.2.3.0,bus2=BBT130026031.1.2.3.0,Phases=3,Linecode=BT521_BT521_5_3_1,Length=0.004000000,Units=km
new line.18478839 bus1=BBT130026031.2.3.0,bus2=BBT130026248.2.3.0,Phases=2,Linecode=BT503_BT503_5_2_1,Length=0.050020000,Units=km
new line.18478846 bus1=BBT130026248.2.3.0,bus2=BBT130026318.2.3.0,Phases=2,Linecode=BT503_BT503_5_2_1,Length=0.004000000,Units=km
new line.18478881 bus1=BBT130000509.1.2.3.0,bus2=BBT130026920.1.2.3.0,Phases=3,Linecode=BT521_BT521_5_3_1,Length=0.050030000,Units=km
new line.18478888 bus1=BBT130026920.1.2.3.0,bus2=BBT130027004.1.2.3.0,Phases=3,Linecode=BT521_BT521_5_3_1,Length=0.004000000,Units=km
new line.18478923 bus1=BBT130027004.1.2.3.0,bus2=BBT130029314.1.2.3.0,Phases=3,Linecode=BT521_BT521_5_3_1,Length=0.049050000,Units=km
new line.18478930 bus1=BBT130029314.1.2.3.0,bus2=BBT130029524.1.2.3.0,Phases=3,Linecode=BT521_BT521_5_3_1,Length=0.004130000,Units=km
new line.18478951 bus1=BBT130029524.1.2.3.0,bus2=BBT130030385.1.2.3.0,Phases=3,Linecode=BT521_BT521_5_3_1,Length=0.050000000,Units=km
new line.18478958 bus1=BBT130030385.1.2.3.0,bus2=BBT130030392.1.2.3.0,Phases=3,Linecode=BT521_BT521_5_3_1,Length=0.004130000,Units=km
new line.18478965 bus1=BBT130030392.1.2.3.0,bus2=BBT130030427.1.2.3.0,Phases=3,Linecode=BT521_BT521_5_3_1,Length=0.020620000,Units=km
new line.18478972 bus1=BBT130030427.1.2.3.0,bus2=BBT130030602.1.2.3.0,Phases=3,Linecode=BT503_BT503_5_3_1,Length=0.010050000,Units=km
new line.18478979 bus1=BBT130030602.1.3.0,bus2=BBT130030609.1.3.0,Phases=2,Linecode=BT503_BT503_5_2_1,Length=0.005000000,Units=km
new line.18478986 bus1=BBT130030602.1.2.3.0,bus2=BBT130030616.1.2.3.0,Phases=3,Linecode=BT503_BT503_5_3_1,Length=0.022480000,Units=km
new line.18478993 bus1=BBT130030616.2.3.0,bus2=BBT130030924.2.3.0,Phases=2,Linecode=BT503_BT503_5_2_1,Length=0.003610000,Units=km
new line.18479000 bus1=BBT130030616.1.2.3.0,bus2=BBT130030945.1.2.3.0,Phases=3,Linecode=BT503_BT503_5_3_1,Length=0.025010000,Units=km
new line.18479007 bus1=BBT130030945.1.2.0,bus2=BBT130030952.1.2.0,Phases=2,Linecode=BT503_BT503_5_2_1,Length=0.004000000,Units=km
new line.18479014 bus1=BBT130031848.1.2.3.0,bus2=BBT130031750.1.2.3.0,Phases=3,Linecode=BT503_BT503_5_3_1,Length=0.004470000,Units=km
new line.18479021 bus1=BBT130030427.1.2.3.0,bus2=BBT130031848.1.2.3.0,Phases=3,Linecode=BT503_BT503_5_3_1,Length=0.032810000,Units=km
new line.18479028 bus1=BBT130031862.1.2.3.0,bus2=BBT130031855.1.2.3.0,Phases=3,Linecode=BT503_BT503_5_3_1,Length=0.004470000,Units=km
new line.18479035 bus1=BBT130031848.1.2.3.0,bus2=BBT130031862.1.2.3.0,Phases=3,Linecode=BT503_BT503_5_3_1,Length=0.041900000,Units=km
new line.18479042 bus1=BBT130031862.1.2.0,bus2=BBT130032331.1.2.0,Phases=2,Linecode=BT503_BT503_5_2_1,Length=0.036630000,Units=km
new line.18479049 bus1=BBT130032331.1.2.0,bus2=BBT130032422.1.2.0,Phases=2,Linecode=BT503_BT503_5_2_1,Length=0.004470000,Units=km
new line.18479056 bus1=BBT130030427.1.2.3.0,bus2=BBT130033031.1.2.3.0,Phases=3,Linecode=BT503_BT503_5_3_1,Length=0.021200000,Units=km
new line.11371130 bus1=BBT3425773.1.2.0,bus2=BBT3644299.1.2.0,Phases=2,Linecode=BT517_BT517_7_2_1,Length=0.000510000,Units=km
new line.11371144 bus1=BBT3644299.1.2.0,bus2=BBT3865212.1.2.0,Phases=2,Linecode=BT808_BT808_4_2_3,Length=0.045020000,Units=km
new line.11371165 bus1=BBT3673706.1.2.0,bus2=BBT3673713.1.2.0,Phases=2,Linecode=BT808_BT808_4_2_3,Length=0.047440000,Units=km
new line.11769185 bus1=BBT4963218.1.2.3.0,bus2=BBT4963225.1.2.3.0,Phases=3,Linecode=BT810_BT810_4_3_4,Length=0.024430000,Units=km
new line.11769220 bus1=BBT4963232.1.2.0,bus2=BBT4963274.1.2.0,Phases=2,Linecode=BT810_BT810_4_2_4,Length=0.026260000,Units=km
new line.11769241 bus1=BBT3544731.1.2.0,bus2=BBT4963232.1.2.0,Phases=2,Linecode=BT810_BT810_4_2_4,Length=0.036810000,Units=km