new line.RML10089752 bus1=BBT36118980.1.2.0,bus2=RML210089752.1.2.0,Phases=2,Linecode=CABBTG05_4_2,Length=0.017000000,Units=km
new line.RML10089758 bus1=BBT138268349.1.0,bus2=RML210089758.1.0,Phases=1,Linecode=CABBTG02_4_1,Length=0.026000000,Units=km
new line.RML10089759 bus1=BBT138268412.2.0,bus2=RML210089759.2.0,Phases=1,Linecode=CABBTG02_4_1,Length=0.026000000,Units=km
new line.RML10089760 bus1=BBT138268440.1.0,bus2=RML210089760.1.0,Phases=1,Linecode=CABBTG02_4_1,Length=0.030000000,Units=km
new line.RML10089762 bus1=BBT138268412.1.2.0,bus2=RML210089762.1.2.0,Phases=2,Linecode=CABBTG05_4_2,Length=0.016000000,Units=km
new line.RML10255052 bus1=BBT4156790.1.0,bus2=RML210255052.1.0,Phases=1,Linecode=CABBTG02_4_1,Length=0.017000000,Units=km
new line.RML10259481 bus1=BBT3477510.1.3.0,bus2=RML210259481.1.3.0,Phases=2,Linecode=CABBTG05_4_2,Length=0.017000000,Units=km
new line.RML10259903 bus1=BBT1448833.2.0,bus2=RML210259903.2.0,Phases=1,Linecode=CABBTG02_4_1,Length=0.017000000,Units=km
new line.RML10320184 bus1=BBT3477461.1.2.0,bus2=RML210320184.1.2.0,Phases=2,Linecode=CABBTG05_4_2,Length=0.017000000,Units=km
new line.RML10320257 bus1=BBT3544703.1.0,bus2=RML210320257.1.0,Phases=1,Linecode=CABBTG02_4_1,Length=0.017000000,Units=km
new line.RML10320474 bus1=BBT1416325.1.2.0,bus2=RML210320474.1.2.0,Phases=2,Linecode=CABBTG05_4_2,Length=0.017000000,Units=km
new line.RML10697327 bus1=BBT4244829.1.2.0,bus2=RML210697327.1.2.0,Phases=2,Linecode=CABBTG05_4_2,Length=0.017000000,Units=km
new line.RML10849511 bus1=BBT36039614.1.0,bus2=RML210849511.1.0,Phases=1,Linecode=CABBTG02_4_1,Length=0.029000000,Units=km
new line.RML10851841 bus1=BBT3233644.1.2.0,bus2=RML210851841.1.2.0,Phases=2,Linecode=CABBTG05_4_2,Length=0.017000000,Units=km
new line.RML2566712 bus1=BBT1445641.1.2.3.0,bus2=RML202566712.1.2.3.0,Phases=3,Linecode=CABBTG06_4_3,Length=0.017000000,Units=km
new line.RML2566719 bus1=BBT1445662.1.2.3.0,bus2=RML202566719.1.2.3.0,Phases=3,Linecode=CABBTG07_4_3,Length=0.017000000,Units=km
new line.RML2566775 bus1=BBT1445795.2.0,bus2=RML202566775.2.0,Phases=1,Linecode=CABBTG01_4_1,Length=0.017000000,Units=km
new line.RML2566782 bus1=BBT1445795.1.0,bus2=RML202566782.1.0,Phases=1,Linecode=CABBTG01_4_1,Length=0.017000000,Units=km
new line.RML2566789 bus1=BBT1445795.2.0,bus2=RML202566789.2.0,Phases=1,Linecode=CABBTG01_4_1,Length=0.017000000,Units=km
new line.RML2566796 bus1=BBT1445795.1.0,bus2=RML202566796.1.0,Phases=1,Linecode=CABBTG01_4_1,Length=0.017000000,Units=km
new line.RML2566803 bus1=BBT1445795.1.0,bus2=RML202566803.1.0,Phases=1,Linecode=CABBTG02_4_1,Length=0.017000000,Units=km
new line.RML2566810 bus1=BBT1445802.1.2.0,bus2=RML202566810.1.2.0,Phases=2,Linecode=CABBTG13_4_2,Length=0.017000000,Units=km
new line.RML2566817 bus1=BBT1445802.1.0,bus2=RML202566817.1.0,Phases=1,Linecode=CABBTG01_4_1,Length=0.017000000,Units=km
new line.RML2566824 bus1=BBT1445809.1.0,bus2=RML202566824.1.0,Phases=1,Linecode=CABBTG01_4_1,Length=0.017000000,Units=km
new line.RML2566831 bus1=BBT1445809.1.0,bus2=RML202566831.1.0,Phases=1,Linecode=CABBTG01_4_1,Length=0.017000000,Units=km
new line.RML2566838 bus1=BBT1445809.1.2.0,bus2=RML202566838.1.2.0,Phases=2,Linecode=CABBTG04_4_2,Length=0.017000000,Units=km
new line.RML2566845 bus1=BBT1445809.1.0,bus2=RML202566845.1.0,Phases=1,Linecode=CABBTG01_4_1,Length=0.017000000,Units=km
new line.RML2566852 bus1=BBT1445809.2.0,bus2=RML202566852.2.0,Phases=1,Linecode=CABBTG01_4_1,Length=0.017000000,Units=km
new line.RML2566859 bus1=BBT1445809.1.0,bus2=RML202566859.1.0,Phases=1,Linecode=CABBTG01_4_1,Length=0.017000000,Units=km
new line.RML2566866 bus1=BBT1445809.1.0,bus2=RML202566866.1.0,Phases=1,Linecode=CABBTG01_4_1,Length=0.017000000,Units=km
new line.RML2566873 bus1=BBT1445823.1.2.0,bus2=RML202566873.1.2.0,Phases=2,Linecode=CABBTG04_4_2,Length=0.017000000,Units=km
new line.RML2566880 bus1=BBT1445823.2.0,bus2=RML202566880.2.0,Phases=1,Linecode=CABBTG01_4_1,Length=0.017000000,Units=km
new line.RML2566887 bus1=BBT1445823.1.2.0,bus2=RML202566887.1.2.0,Phases=2,Linecode=CABBTG04_4_2,Length=0.017000000,Units=km
new line.RML2566894 bus1=BBT1445837.2.0,bus2=RML202566894.2.0,Phases=1,Linecode=CABBTG01_4_1,Length=0.017000000,Units=km
new line.RML2566901 bus1=BBT1445837.2.0,bus2=RML202566901.2.0,Phases=1,Linecode=CABBTG01_4_1,Length=0.017000000,Units=km
new line.RML2566908 bus1=BBT1445837.1.0,bus2=RML202566908.1.0,Phases=1,Linecode=CABBTG01_4_1,Length=0.017000000,Units=km
new line.RML2566915 bus1=BBT1445837.2.0,bus2=RML202566915.2.0,Phases=1,Linecode=CABBTG01_4_1,Length=0.017000000,Units=km
new line.RML2566922 bus1=BBT1445844.1.2.0,bus2=RML202566922.1.2.0,Phases=2,Linecode=CABBTG05_4_2,Length=0.017000000,Units=km
new line.RML2566929 bus1=BBT1445844.1.0,bus2=RML202566929.1.0,Phases=1,Linecode=CABBTG01_4_1,Length=0.017000000,Units=km
new line.RML2566936 bus1=BBT1445851.1.0,bus2=RML202566936.1.0,Phases=1,Linecode=CABBTG01_4_1,Length=0.017000000,Units=km
new line.RML2566943 bus1=BBT1445851.2.0,bus2=RML202566943.2.0,Phases=1,Linecode=CABBTG01_4_1,Length=0.017000000,Units=km
new line.RML2566950 bus1=BBT1445851.1.0,bus2=RML202566950.1.0,Phases=1,Linecode=CABBTG01_4_1,Length=0.017000000,Units=km
new line.RML2566957 bus1=BBT1445858.2.0,bus2=RML202566957.2.0,Phases=1,Linecode=CABBTG01_4_1,Length=0.017000000,Units=km
new line.RML2566964 bus1=BBT1445858.1.0,bus2=RML202566964.1.0,Phases=1,Linecode=CABBTG01_4_1,Length=0.017000000,Units=km
new line.RML2566971 bus1=BBT1445858.1.2.0,bus2=RML202566971.1.2.0,Phases=2,Linecode=CABBTG05_4_2,Length=0.017000000,Units=km
new line.RML2566978 bus1=BBT1445858.1.2.0,bus2=RML202566978.1.2.0,Phases=2,Linecode=CABBTG05_4_2,Length=0.017000000,Units=km
new line.RML2566985 bus1=BBT1445858.1.0,bus2=RML202566985.1.0,Phases=1,Linecode=CABBTG01_4_1,Length=0.017000000,Units=km
new line.RML2566992 bus1=BBT1445858.2.0,bus2=RML202566992.2.0,Phases=1,Linecode=CABBTG01_4_1,Length=0.017000000,Units=km
new line.RML2566999 bus1=BBT1445858.1.0,bus2=RML202566999.1.0,Phases=1,Linecode=CABBTG01_4_1,Length=0.017000000,Units=km
new line.RML2567006 bus1=BBT1445858.2.0,bus2=RML202567006.2.0,Phases=1,Linecode=CABBTG01_4_1,Length=0.017000000,Units=km
new line.RML2567013 bus1=BBT1445865.1.0,bus2=RML202567013.1.0,Phases=1,Linecode=CABBTG01_4_1,Length=0.017000000,Units=km
new line.RML2567020 bus1=BBT1445865.1.0,bus2=RML202567020.1.0,Phases=1,Linecode=CABBTG01_4_1,Length=0.017000000,Units=km
new line.RML2567027 bus1=BBT1445865.1.2.0,bus2=RML202567027.1.2.0,Phases=2,Linecode=CABBTG04_4_2,Length=0.017000000,Units=km
new line.RML2567034 bus1=BBT1445865.2.0,bus2=RML202567034.2.0,Phases=1,Linecode=CABBTG01_4_1,Length=0.017000000,Units=km
new line.RML2567041 bus1=BBT1445865.1.0,bus2=RML202567041.1.0,Phases=1,Linecode=CABBTG01_4_1,Length=0.017000000,Units=km
new line.RML2567048 bus1=BBT1445865.2.0,bus2=RML202567048.2.0,Phases=1,Linecode=CABBTG01_4_1,Length=0.017000000,Units=km
new line.RML2567055 bus1=BBT1445872.1.2.0,bus2=RML202567055.1.2.0,Phases=2,Linecode=CABBTG05_4_2,Length=0.017000000,Units=km
new line.RML2567062 bus1=BBT1445872.1.2.0,bus2=RML202567062.1.2.0,Phases=2,Linecode=CABBTG05_4_2,Length=0.017000000,Units=km
new line.RML2567069 bus1=BBT1445872.2.0,bus2=RML202567069.2.0,Phases=1,Linecode=CABBTG01_4_1,Length=0.017000000,Units=km
new line.RML2567076 bus1=BBT1445872.1.0,bus2=RML202567076.1.0,Phases=1,Linecode=CABBTG01_4_1,Length=0.017000000,Units=km
new line.RML2567083 bus1=BBT1445872.1.0,bus2=RML202567083.1.0,Phases=1,Linecode=CABBTG01_4_1,Length=0.017000000,Units=km
new line.RML2567090 bus1=BBT1445879.2.0,bus2=RML202567090.2.0,Phases=1,Linecode=CABBTG01_4_1,Length=0.017000000,Units=km
new line.RML2567097 bus1=BBT1445879.1.2.0,bus2=RML202567097.1.2.0,Phases=2,Linecode=CABBTG04_4_2,Length=0.017000000,Units=km
new line.RML2567104 bus1=BBT1445879.1.0,bus2=RML202567104.1.0,Phases=1,Linecode=CABBTG01_4_1,Length=0.017000000,Units=km
new line.RML2567111 bus1=BBT1445886.2.0,bus2=RML202567111.2.0,Phases=1,Linecode=CABBTG01_4_1,Length=0.017000000,Units=km
new line.RML2567118 bus1=BBT1445886.2.0,bus2=RML202567118.2.0,Phases=1,Linecode=CABBTG01_4_1,Length=0.017000000,Units=km
new line.RML2567125 bus1=BBT1445886.1.2.0,bus2=RML202567125.1.2.0,Phases=2,Linecode=CABBTG04_4_2,Length=0.017000000,Units=km
new line.RML2567132 bus1=BBT1445886.1.2.0,bus2=RML202567132.1.2.0,Phases=2,Linecode=CABBTG04_4_2,Length=0.017000000,Units=km
new line.RML2567139 bus1=BBT1445886.2.0,bus2=RML202567139.2.0,Phases=1,Linecode=CABBTG01_4_1,Length=0.017000000,Units=km
new line.RML2567146 bus1=BBT1445886.2.0,bus2=RML202567146.2.0,Phases=1,Linecode=CABBTG01_4_1,Length=0.017000000,Units=km
new line.RML2567209 bus1=BBT1446152.1.0,bus2=RML202567209.1.0,Phases=1,Linecode=CABBTG01_4_1,Length=0.017000000,Units=km
new line.RML2567216 bus1=BBT1446152.2.0,bus2=RML202567216.2.0,Phases=1,Linecode=CABBTG01_4_1,Length=0.017000000,Units=km
new line.RML2567223 bus1=BBT1446152.2.0,bus2=RML202567223.2.0,Phases=1,Linecode=CABBTG01_4_1,Length=0.017000000,Units=km
new line.RML2567230 bus1=BBT1446159.2.0,bus2=RML202567230.2.0,Phases=1,Linecode=CABBTG01_4_1,Length=0.017000000,Units=km
new line.RML2567237 bus1=BBT1446159.2.0,bus2=RML202567237.2.0,Phases=1,Linecode=CABBTG01_4_1,Length=0.017000000,Units=km
new line.RML2567244 bus1=BBT1446166.2.0,bus2=RML202567244.2.0,Phases=1,Linecode=CABBTG01_4_1,Length=0.017000000,Units=km
new line.RML2567251 bus1=BBT1446166.1.0,bus2=RML202567251.1.0,Phases=1,Linecode=CABBTG01_4_1,Length=0.017000000,Units=km
new line.RML2567258 bus1=BBT1446166.2.0,bus2=RML202567258.2.0,Phases=1,Linecode=CABBTG01_4_1,Length=0.017000000,Units=km
new line.RML10058763 bus1=BBT1422688.1.2.0,bus2=RML210058763.1.2.0,Phases=2,Linecode=CABBTG05_4_2,Length=0.017000000,Units=km
new line.RML10123485 bus1=BBT149112093.1.2.0,bus2=RML210123485.1.2.0,Phases=2,Linecode=CABBTG05_4_2,Length=0.020000000,Units=km
new line.RML10125241 bus1=BBT112305223.2.0,bus2=RML210125241.2.0,Phases=1,Linecode=CABBTG02_4_1,Length=0.030000000,Units=km
new line.RML10125733 bus1=BBT1443884.1.2.3.0,bus2=RML210125733.1.2.3.0,Phases=3,Linecode=CABBTG06_4_3,Length=0.028000000,Units=km
new line.RML10334861 bus1=BBT1456407.1.2.3.0,bus2=RML210334861.1.2.3.0,Phases=3,Linecode=CABBTG07_4_3,Length=0.017000000,Units=km
new line.RML10475138 bus1=BBT4244843.1.2.0,bus2=RML210475138.1.2.0,Phases=2,Linecode=CABBTG05_4_2,Length=0.017000000,Units=km
new line.RML10478345 bus1=BBT4146745.2.0,bus2=RML210478345.2.0,Phases=1,Linecode=CABBTG02_4_1,Length=0.024000000,Units=km
new line.RML10481218 bus1=BBT152926798.2.0,bus2=RML210481218.2.0,Phases=1,Linecode=CABBTG02_4_1,Length=0.020000000,Units=km
new line.RML10648243 bus1=BBT156067103.2.0,bus2=RML210648243.2.0,Phases=1,Linecode=CABBTG02_4_1,Length=0.012000000,Units=km
new line.RML10650120 bus1=BBT1414407.1.2.0,bus2=RML210650120.1.2.0,Phases=2,Linecode=CABBTG05_4_2,Length=0.017000000,Units=km
new line.RML10650161 bus1=BBT1458983.2.3.0,bus2=RML210650161.2.3.0,Phases=2,Linecode=CABBTG05_4_2,Length=0.017000000,Units=km
new line.RML10652955 bus1=BBT64551188.1.2.0,bus2=RML210652955.1.2.0,Phases=2,Linecode=CABBTG05_4_2,Length=0.017000000,Units=km
new line.RML10710791 bus1=BBT1233492.2.0,bus2=RML210710791.2.0,Phases=1,Linecode=CABBTG02_4_1,Length=0.017000000,Units=km
new line.RML10711331 bus1=BBT1414232.1.0,bus2=RML210711331.1.0,Phases=1,Linecode=CABBTG02_4_1,Length=0.017000000,Units=km
new line.RML10711338 bus1=BBT1415310.1.0,bus2=RML210711338.1.0,Phases=1,Linecode=CABBTG02_4_1,Length=0.017000000,Units=km
new line.RML10711349 bus1=BBT156067103.1.0,bus2=RML210711349.1.0,Phases=1,Linecode=CABBTG02_4_1,Length=0.017000000,Units=km
new line.RML10802169 bus1=BBT1422625.1.2.0,bus2=RML210802169.1.2.0,Phases=2,Linecode=CABBTG05_4_2,Length=0.017000000,Units=km
new line.RML10805404 bus1=BBT1417235.1.2.0,bus2=RML210805404.1.2.0,Phases=2,Linecode=CABBTG05_4_2,Length=0.017000000,Units=km
new line.RML10805781 bus1=BBT4146955.1.0,bus2=RML210805781.1.0,Phases=1,Linecode=CABBTG02_4_1,Length=0.017000000,Units=km
new line.RML10888424 bus1=BBT4146955.1.0,bus2=RML210888424.1.0,Phases=1,Linecode=CABBTG02_4_1,Length=0.017000000,Units=km
new line.RML10947456 bus1=BBT36118910.1.0,bus2=RML210947456.1.0,Phases=1,Linecode=CABBTG02_4_1,Length=0.017000000,Units=km
new line.RML2559894 bus1=BBT1438592.1.0,bus2=RML202559894.1.0,Phases=1,Linecode=CABBTG01_4_1,Length=0.017000000,Units=km
new line.RML2559901 bus1=BBT1438592.2.3.0,bus2=RML202559901.2.3.0,Phases=2,Linecode=CABBTG05_4_2,Length=0.017000000,Units=km
new line.RML2559908 bus1=BBT1438592.1.2.0,bus2=RML202559908.1.2.0,Phases=2,Linecode=CABBTG05_4_2,Length=0.017000000,Units=km
new line.RML2559915 bus1=BBT1438592.2.3.0,bus2=RML202559915.2.3.0,Phases=2,Linecode=CABBTG05_4_2,Length=0.017000000,Units=km
new line.RML2559922 bus1=BBT1438599.1.0,bus2=RML202559922.1.0,Phases=1,Linecode=CABBTG01_4_1,Length=0.017000000,Units=km
new line.RML2559929 bus1=BBT1438599.2.0,bus2=RML202559929.2.0,Phases=1,Linecode=CABBTG01_4_1,Length=0.017000000,Units=km
new line.RML2559936 bus1=BBT1438599.1.3.0,bus2=RML202559936.1.3.0,Phases=2,Linecode=CABBTG05_4_2,Length=0.017000000,Units=km
new line.RML2559943 bus1=BBT1438599.3.0,bus2=RML202559943.3.0,Phases=1,Linecode=CABBTG01_4_1,Length=0.017000000,Units=km
new line.RML2559950 bus1=BBT1438599.1.3.0,bus2=RML202559950.1.3.0,Phases=2,Linecode=CABBTG05_4_2,Length=0.017000000,Units=km
new line.RML2559957 bus1=BBT1438599.1.0,bus2=RML202559957.1.0,Phases=1,Linecode=CABBTG01_4_1,Length=0.017000000,Units=km
new line.RML2559964 bus1=BBT1438599.1.2.0,bus2=RML202559964.1.2.0,Phases=2,Linecode=CABBTG05_4_2,Length=0.017000000,Units=km
new line.RML2559971 bus1=BBT1438599.1.2.0,bus2=RML202559971.1.2.0,Phases=2,Linecode=CABBTG05_4_2,Length=0.017000000,Units=km
new line.RML2559978 bus1=BBT1438606.1.2.0,bus2=RML202559978.1.2.0,Phases=2,Linecode=CABBTG05_4_2,Length=0.017000000,Units=km
new line.RML2559985 bus1=BBT1438592.1.2.3.0,bus2=RML202559985.1.2.3.0,Phases=3,Linecode=CABBTG06_4_3,Length=0.017000000,Units=km
new line.RML2559992 bus1=BBT1438606.1.2.0,bus2=RML202559992.1.2.0,Phases=2,Linecode=CABBTG05_4_2,Length=0.017000000,Units=km
new line.RML2559999 bus1=BBT1438606.3.0,bus2=RML202559999.3.0,Phases=1,Linecode=CABBTG01_4_1,Length=0.017000000,Units=km
new line.RML2560006 bus1=BBT1438606.1.3.0,bus2=RML202560006.1.3.0,Phases=2,Linecode=CABBTG05_4_2,Length=0.017000000,Units=km
new line.RML2560013 bus1=BBT1438606.2.0,bus2=RML202560013.2.0,Phases=1,Linecode=CABBTG01_4_1,Length=0.017000000,Units=km
new line.RML10174649 bus1=BBT5388552.1.2.3.0,bus2=RML210174649.1.2.3.0,Phases=3,Linecode=CABBTG06_4_3,Length=0.017000000,Units=km
new line.RML10176119 bus1=BBT1418033.1.2.0,bus2=RML210176119.1.2.0,Phases=2,Linecode=CABBTG05_4_2,Length=0.017000000,Units=km
new line.RML10369047 bus1=BBT3477426.2.0,bus2=RML210369047.2.0,Phases=1,Linecode=CABBTG02_4_1,Length=0.017000000,Units=km
new line.RML10370203 bus1=BBT4146724.1.0,bus2=RML210370203.1.0,Phases=1,Linecode=CABBTG02_4_1,Length=0.017000000,Units=km
new line.RML10370208 bus1=BBT12353007.2.0,bus2=RML210370208.2.0,Phases=1,Linecode=CABBTG02_4_1,Length=0.017000000,Units=km
new line.RML10439550 bus1=BBT1414708.1.2.0,bus2=RML210439550.1.2.0,Phases=2,Linecode=CABBTG05_4_2,Length=0.017000000,Units=km
new line.RML10484074 bus1=BBT1414267.1.2.0,bus2=RML210484074.1.2.0,Phases=2,Linecode=CABBTG05_4_2,Length=0.017000000,Units=km
new line.RML10484086 bus1=BBT1454741.1.0,bus2=RML210484086.1.0,Phases=1,Linecode=CABBTG02_4_1,Length=0.022000000,Units=km
new line.RML10487336 bus1=BBT2986075.1.2.0,bus2=RML210487336.1.2.0,Phases=2,Linecode=CABBT801_4_2,Length=0.024000000,Units=km
new line.RML10522666 bus1=BBT112305223.1.0,bus2=RML210522666.1.0,Phases=1,Linecode=CABBTG02_4_1,Length=0.017000000,Units=km
new line.RML10578795 bus1=BBT1456372.1.2.3.0,bus2=RML210578795.1.2.3.0,Phases=3,Linecode=CABBT806_4_3,Length=0.013000000,Units=km
new line.RML10609076 bus1=BBT4963211.1.0,bus2=RML210609076.1.0,Phases=1,Linecode=CABBTG02_4_1,Length=0.014000000,Units=km
new line.RML10609077 bus1=BBT4244843.1.2.0,bus2=RML210609077.1.2.0,Phases=2,Linecode=CABBTG05_4_2,Length=0.017000000,Units=km
new line.RML10665997 bus1=BBT3233742.1.2.0,bus2=RML210665997.1.2.0,Phases=2,Linecode=CABBTG05_4_2,Length=0.017000000,Units=km
new line.RML10729846 bus1=BBT1451031.1.2.0,bus2=RML210729846.1.2.0,Phases=2,Linecode=CABBTG05_4_2,Length=0.017000000,Units=km
new line.RML10729941 bus1=BBT2985977.2.0,bus2=RML210729941.2.0,Phases=1,Linecode=CABBTG02_4_1,Length=0.017000000,Units=km
new line.RML10810128 bus1=BBT1415513.2.0,bus2=RML210810128.2.0,Phases=1,Linecode=CABBT802_4_1,Length=0.008000000,Units=km
new line.RML10845333 bus1=BBT1415513.2.3.0,bus2=RML210845333.2.3.0,Phases=2,Linecode=CABBTG05_4_2,Length=0.017000000,Units=km
new line.RML10894220 bus1=BBT3477496.1.0,bus2=RML210894220.1.0,Phases=1,Linecode=CABBTG02_4_1,Length=0.017000000,Units=km
new line.RML10896053 bus1=BBT2978697.1.2.0,bus2=RML210896053.1.2.0,Phases=2,Linecode=CABBTG05_4_2,Length=0.017000000,Units=km
new line.RML2272033 bus1=BBT1231826.1.2.3.0,bus2=RML202272033.1.2.3.0,Phases=3,Linecode=CABBTG07_4_3,Length=0.017000000,Units=km
new line.RML2272075 bus1=BBT1232050.1.2.3.0,bus2=RML202272075.1.2.3.0,Phases=3,Linecode=CABBTG07_4_3,Length=0.017000000,Units=km
new line.RML2272593 bus1=BBT1232568.1.2.0,bus2=RML202272593.1.2.0,Phases=2,Linecode=CABBTG05_4_2,Length=0.017000000,Units=km
new line.RML2272600 bus1=BBT3547825.1.2.0,bus2=RML202272600.1.2.0,Phases=2,Linecode=CABBTG05_4_2,Length=0.017000000,Units=km
new line.RML2273510 bus1=BBT1233492.1.2.3.0,bus2=RML202273510.1.2.3.0,Phases=3,Linecode=CABBTG07_4_3,Length=0.017000000,Units=km
new line.RML2273517 bus1=BBT1233534.1.2.0,bus2=RML202273517.1.2.0,Phases=2,Linecode=CABBTG05_4_2,Length=0.017000000,Units=km
new line.RML2274042 bus1=BBT1422275.1.2.0,bus2=RML202274042.1.2.0,Phases=2,Linecode=CABBTG05_4_2,Length=0.017000000,Units=km
new line.RML2275295 bus1=BBT1233828.1.2.3.0,bus2=RML202275295.1.2.3.0,Phases=3,Linecode=CABBTG07_4_3,Length=0.017000000,Units=km
new line.RML2275316 bus1=BBT1233870.1.2.3.0,bus2=RML202275316.1.2.3.0,Phases=3,Linecode=CABBTG07_4_3,Length=0.017000000,Units=km
new line.RML2275701 bus1=BBT1234164.1.2.0,bus2=RML202275701.1.2.0,Phases=2,Linecode=CABBTG05_4_2,Length=0.017000000,Units=km
new line.RML2522584 bus1=BBT1414253.1.0,bus2=RML202522584.1.0,Phases=1,Linecode=CABBTG01_4_1,Length=0.017000000,Units=km
new line.RML2522675 bus1=BBT1414407.1.2.0,bus2=RML202522675.1.2.0,Phases=2,Linecode=CABBTG05_4_2,Length=0.017000000,Units=km
new line.RML2522696 bus1=BBT1414512.1.0,bus2=RML202522696.1.0,Phases=1,Linecode=CABBTG01_4_1,Length=0.017000000,Units=km
new line.RML2522703 bus1=BBT1414540.1.2.3.0,bus2=RML202522703.1.2.3.0,Phases=3,Linecode=CABBTG07_4_3,Length=0.017000000,Units=km
new line.RML2524418 bus1=BBT1415660.1.2.0,bus2=RML202524418.1.2.0,Phases=2,Linecode=CABBTG05_4_2,Length=0.017000000,Units=km
new line.RML2524425 bus1=BBT1415667.1.2.0,bus2=RML202524425.1.2.0,Phases=2,Linecode=CABBTG05_4_2,Length=0.017000000,Units=km
new line.RML2524964 bus1=BBT1416185.1.2.0,bus2=RML202524964.1.2.0,Phases=2,Linecode=CABBTG04_4_2,Length=0.017000000,Units=km
new line.RML2526637 bus1=BBT1417662.1.2.0,bus2=RML202526637.1.2.0,Phases=2,Linecode=CABBTG05_4_2,Length=0.017000000,Units=km
new line.RML2526644 bus1=BBT1417704.1.3.0,bus2=RML202526644.1.3.0,Phases=2,Linecode=CABBTG05_4_2,Length=0.017000000,Units=km
new line.RML10153096 bus1=BBT1445683.3.0,bus2=RML210153096.3.0,Phases=1,Linecode=CABBTG02_4_1,Length=0.017000000,Units=km
new line.RML10156120 bus1=BBT4691380.1.2.0,bus2=RML210156120.1.2.0,Phases=2,Linecode=CABBTG05_4_2,Length=0.017000000,Units=km
new line.RML10374105 bus1=BBT2985963.1.0,bus2=RML210374105.1.0,Phases=1,Linecode=CABBTG02_4_1,Length=0.017000000,Units=km
new line.RML10377305 bus1=BBT1450828.1.2.3.0,bus2=RML210377305.1.2.3.0,Phases=3,Linecode=CABBTG06_4_3,Length=0.017000000,Units=km
new line.RML10433185 bus1=BBT1434728.3.0,bus2=RML210433185.3.0,Phases=1,Linecode=CABBTG02_4_1,Length=0.017000000,Units=km
new line.RML10434304 bus1=BBT1450170.1.3.0,bus2=RML210434304.1.3.0,Phases=2,Linecode=CABBTG05_4_2,Length=0.017000000,Units=km
new line.RML10435805 bus1=BBT4244829.1.2.0,bus2=RML210435805.1.2.0,Phases=2,Linecode=CABBTG05_4_2,Length=0.017000000,Units=km
new line.RML10602966 bus1=BBT4156797.2.0,bus2=RML210602966.2.0,Phases=1,Linecode=CABBTG02_4_1,Length=0.014000000,Units=km
new line.RML10833317 bus1=BBT3544703.1.2.0,bus2=RML210833317.1.2.0,Phases=2,Linecode=CABBTG05_4_2,Length=0.017000000,Units=km
new line.RML10914764 bus1=BBT153979725.1.2.0,bus2=RML210914764.1.2.0,Phases=2,Linecode=CABBTG06_4_3,Length=0.017000000,Units=km
new line.RML10916598 bus1=BBT166628802.1.2.3.0,bus2=RML210916598.1.2.3.0,Phases=3,Linecode=CABBTG09_4_3,Length=0.017000000,Units=km
new line.RML10920920 bus1=BBT1415702.1.2.0,bus2=RML210920920.1.2.0,Phases=2,Linecode=CABBTG05_4_2,Length=0.017000000,Units=km
new line.RML2208403 bus1=BBT1188895.1.2.0,bus2=RML202208403.1.2.0,Phases=2,Linecode=CABBTG05_4_2,Length=0.017000000,Units=km
new line.RML2535968 bus1=BBT3609586.1.0,bus2=RML202535968.1.0,Phases=1,Linecode=CABBTG01_4_1,Length=0.017000000,Units=km
new line.RML2535975 bus1=BBT3609579.1.0,bus2=RML202535975.1.0,Phases=1,Linecode=CABBTG01_4_1,Length=0.017000000,Units=km
new line.RML2535982 bus1=BBT1416185.2.0,bus2=RML202535982.2.0,Phases=1,Linecode=CABBTG01_4_1,Length=0.017000000,Units=km
new line.RML2535989 bus1=BBT1416185.2.0,bus2=RML202535989.2.0,Phases=1,Linecode=CABBTG01_4_1,Length=0.017000000,Units=km
new line.RML2535996 bus1=BBT3609600.1.2.0,bus2=RML202535996.1.2.0,Phases=2,Linecode=CABBTG05_4_2,Length=0.017000000,Units=km
new line.RML2536003 bus1=BBT3609593.1.2.0,bus2=RML202536003.1.2.0,Phases=2,Linecode=CABBTG05_4_2,Length=0.017000000,Units=km
new line.RML2536010 bus1=BBT5016992.1.2.0,bus2=RML202536010.1.2.0,Phases=2,Linecode=CABBTG05_4_2,Length=0.017000000,Units=km
new line.RML2536017 bus1=BBT3609593.1.0,bus2=RML202536017.1.0,Phases=1,Linecode=CABBTG01_4_1,Length=0.017000000,Units=km
new line.RML2536024 bus1=BBT3609628.1.2.0,bus2=RML202536024.1.2.0,Phases=2,Linecode=CABBTG05_4_2,Length=0.017000000,Units=km
new line.RML2536038 bus1=BBT1425390.1.2.3.0,bus2=RML202536038.1.2.3.0,Phases=3,Linecode=CABBTG07_4_3,Length=0.017000000,Units=km
new line.RML2536045 bus1=BBT1417683.2.0,bus2=RML202536045.2.0,Phases=1,Linecode=CABBTG01_4_1,Length=0.017000000,Units=km
new line.RML2536059 bus1=BBT1435694.1.2.0,bus2=RML202536059.1.2.0,Phases=2,Linecode=CABBTG05_4_2,Length=0.017000000,Units=km
new line.RML2536073 bus1=BBT1441889.1.2.3.0,bus2=RML202536073.1.2.3.0,Phases=3,Linecode=CABBTG07_4_3,Length=0.017000000,Units=km
new line.RML2536129 bus1=BBT1440657.1.2.0,bus2=RML202536129.1.2.0,Phases=2,Linecode=CABBTG05_4_2,Length=0.017000000,Units=km
new line.RML2536136 bus1=BBT1436443.1.2.0,bus2=RML202536136.1.2.0,Phases=2,Linecode=CABBTG05_4_2,Length=0.017000000,Units=km
new line.RML2536143 bus1=BBT1433314.1.2.0,bus2=RML202536143.1.2.0,Phases=2,Linecode=CABBTG05_4_2,Length=0.017000000,Units=km
new line.RML2536157 bus1=BBT1418033.2.3.0,bus2=RML202536157.2.3.0,Phases=2,Linecode=CABBTG05_4_2,Length=0.017000000,Units=km
new line.RML2536164 bus1=BBT1435813.1.2.0,bus2=RML202536164.1.2.0,Phases=2,Linecode=CABBTG05_4_2,Length=0.017000000,Units=km
new line.RML2536171 bus1=BBT1442211.1.2.0,bus2=RML202536171.1.2.0,Phases=2,Linecode=CABBTG05_4_2,Length=0.017000000,Units=km
new line.RML2536178 bus1=BBT1441343.1.2.0,bus2=RML202536178.1.2.0,Phases=2,Linecode=CABBTG05_4_2,Length=0.017000000,Units=km
new line.RML2539846 bus1=BBT153979279.1.2.3.0,bus2=RML202539846.1.2.3.0,Phases=3,Linecode=CABBTG07_4_3,Length=0.017000000,Units=km
new line.RML2540959 bus1=BBT3233840.1.0,bus2=RML202540959.1.0,Phases=1,Linecode=CABBTG01_4_1,Length=0.017000000,Units=km
new line.RML2540966 bus1=BBT3233693.1.2.3.0,bus2=RML202540966.1.2.3.0,Phases=3,Linecode=CABBTG06_4_3,Length=0.017000000,Units=km
new line.RML2541085 bus1=BBT1414232.1.2.0,bus2=RML202541085.1.2.0,Phases=2,Linecode=CABBTG05_4_2,Length=0.017000000,Units=km
new line.RML2541092 bus1=BBT1414232.2.0,bus2=RML202541092.2.0,Phases=1,Linecode=CABBTG01_4_1,Length=0.017000000,Units=km
new line.RML2541099 bus1=BBT1415723.1.2.0,bus2=RML202541099.1.2.0,Phases=2,Linecode=CABBTG05_4_2,Length=0.017000000,Units=km
new line.RML2560020 bus1=BBT1438606.1.3.0,bus2=RML202560020.1.3.0,Phases=2,Linecode=CABBTG05_4_2,Length=0.017000000,Units=km
new line.RML2560027 bus1=BBT1438606.1.0,bus2=RML202560027.1.0,Phases=1,Linecode=CABBTG01_4_1,Length=0.017000000,Units=km
new line.RML2560034 bus1=BBT1438613.1.0,bus2=RML202560034.1.0,Phases=1,Linecode=CABBTG01_4_1,Length=0.017000000,Units=km
new line.RML2560041 bus1=BBT1438613.1.3.0,bus2=RML202560041.1.3.0,Phases=2,Linecode=CABBTG05_4_2,Length=0.017000000,Units=km
new line.RML2560048 bus1=BBT1438613.1.3.0,bus2=RML202560048.1.3.0,Phases=2,Linecode=CABBTG05_4_2,Length=0.017000000,Units=km
new line.RML2560055 bus1=BBT1438613.2.3.0,bus2=RML202560055.2.3.0,Phases=2,Linecode=CABBTG05_4_2,Length=0.017000000,Units=km
new line.RML2560062 bus1=BBT1438613.2.3.0,bus2=RML202560062.2.3.0,Phases=2,Linecode=CABBTG04_4_2,Length=0.017000000,Units=km
new line.RML2560069 bus1=BBT1438613.2.3.0,bus2=RML202560069.2.3.0,Phases=2,Linecode=CABBTG05_4_2,Length=0.017000000,Units=km
new line.RML2560076 bus1=BBT1438613.2.0,bus2=RML202560076.2.0,Phases=1,Linecode=CABBTG01_4_1,Length=0.017000000,Units=km
new line.RML2560083 bus1=BBT1438613.2.0,bus2=RML202560083.2.0,Phases=1,Linecode=CABBTG01_4_1,Length=0.017000000,Units=km
new line.RML2560090 bus1=BBT1438620.1.2.0,bus2=RML202560090.1.2.0,Phases=2,Linecode=CABBTG05_4_2,Length=0.017000000,Units=km
new line.RML2560097 bus1=BBT1438620.1.2.0,bus2=RML202560097.1.2.0,Phases=2,Linecode=CABBTG05_4_2,Length=0.017000000,Units=km
new line.RML2560104 bus1=BBT1438620.1.2.0,bus2=RML202560104.1.2.0,Phases=2,Linecode=CABBTG05_4_2,Length=0.017000000,Units=km
new line.RML2560111 bus1=BBT1438620.1.2.0,bus2=RML202560111.1.2.0,Phases=2,Linecode=CABBTG05_4_2,Length=0.017000000,Units=km
new line.RML2560118 bus1=BBT1438620.3.0,bus2=RML202560118.3.0,Phases=1,Linecode=CABBTG01_4_1,Length=0.017000000,Units=km
new line.RML2560125 bus1=BBT1438627.1.2.0,bus2=RML202560125.1.2.0,Phases=2,Linecode=CABBTG05_4_2,Length=0.017000000,Units=km
new line.RML2560132 bus1=BBT1438627.3.0,bus2=RML202560132.3.0,Phases=1,Linecode=CABBTG01_4_1,Length=0.017000000,Units=km
new line.RML2560139 bus1=BBT1438627.1.2.0,bus2=RML202560139.1.2.0,Phases=2,Linecode=CABBTG05_4_2,Length=0.017000000,Units=km
new line.RML2560146 bus1=BBT1438634.2.3.0,bus2=RML202560146.2.3.0,Phases=2,Linecode=CABBTG05_4_2,Length=0.017000000,Units=km
new line.RML2560153 bus1=BBT1438634.1.0,bus2=RML202560153.1.0,Phases=1,Linecode=CABBTG01_4_1,Length=0.017000000,Units=km
new line.RML2560160 bus1=BBT1438634.2.0,bus2=RML202560160.2.0,Phases=1,Linecode=CABBTG01_4_1,Length=0.017000000,Units=km
new line.RML2560167 bus1=BBT1438634.1.0,bus2=RML202560167.1.0,Phases=1,Linecode=CABBTG01_4_1,Length=0.017000000,Units=km
new line.RML2560174 bus1=BBT1438641.2.0,bus2=RML202560174.2.0,Phases=1,Linecode=CABBTG01_4_1,Length=0.017000000,Units=km
new line.RML2560181 bus1=BBT1438641.1.3.0,bus2=RML202560181.1.3.0,Phases=2,Linecode=CABBTG05_4_2,Length=0.017000000,Units=km
new line.RML2560188 bus1=BBT1438641.1.0,bus2=RML202560188.1.0,Phases=1,Linecode=CABBTG01_4_1,Length=0.017000000,Units=km
new line.RML2560195 bus1=BBT1438641.1.3.0,bus2=RML202560195.1.3.0,Phases=2,Linecode=CABBTG05_4_2,Length=0.017000000,Units=km
new line.RML2560202 bus1=BBT1438641.3.0,bus2=RML202560202.3.0,Phases=1,Linecode=CABBTG01_4_1,Length=0.017000000,Units=km
new line.RML2560209 bus1=BBT1438648.1.2.0,bus2=RML202560209.1.2.0,Phases=2,Linecode=CABBTG05_4_2,Length=0.017000000,Units=km
new line.RML2560216 bus1=BBT1438648.1.0,bus2=RML202560216.1.0,Phases=1,Linecode=CABBTG01_4_1,Length=0.017000000,Units=km
new line.RML2560223 bus1=BBT1438648.1.2.0,bus2=RML202560223.1.2.0,Phases=2,Linecode=CABBTG05_4_2,Length=0.017000000,Units=km
new line.RML2560230 bus1=BBT1438648.2.0,bus2=RML202560230.2.0,Phases=1,Linecode=CABBTG01_4_1,Length=0.017000000,Units=km
new line.RML2560237 bus1=BBT1438648.1.0,bus2=RML202560237.1.0,Phases=1,Linecode=CABBTG01_4_1,Length=0.017000000,Units=km
new line.RML2560244 bus1=BBT1438655.2.0,bus2=RML202560244.2.0,Phases=1,Linecode=CABBTG02_4_1,Length=0.017000000,Units=km
new line.RML2560251 bus1=BBT1438655.1.3.0,bus2=RML202560251.1.3.0,Phases=2,Linecode=CABBTG05_4_2,Length=0.017000000,Units=km
new line.RML2560258 bus1=BBT1438655.3.0,bus2=RML202560258.3.0,Phases=1,Linecode=CABBTG01_4_1,Length=0.017000000,Units=km
new line.RML2560265 bus1=BBT1438655.3.0,bus2=RML202560265.3.0,Phases=1,Linecode=CABBTG01_4_1,Length=0.017000000,Units=km
new line.RML2560272 bus1=BBT1438662.1.0,bus2=RML202560272.1.0,Phases=1,Linecode=CABBTG01_4_1,Length=0.017000000,Units=km
new line.RML2560279 bus1=BBT1438662.1.0,bus2=RML202560279.1.0,Phases=1,Linecode=CABBTG01_4_1,Length=0.017000000,Units=km
new line.RML2560286 bus1=BBT1438662.1.0,bus2=RML202560286.1.0,Phases=1,Linecode=CABBTG01_4_1,Length=0.017000000,Units=km
new line.RML2567265 bus1=BBT1446173.1.0,bus2=RML202567265.1.0,Phases=1,Linecode=CABBTG01_4_1,Length=0.017000000,Units=km
new line.RML2567272 bus1=BBT1446173.1.0,bus2=RML202567272.1.0,Phases=1,Linecode=CABBTG01_4_1,Length=0.017000000,Units=km
new line.RML2567279 bus1=BBT1446173.1.2.0,bus2=RML202567279.1.2.0,Phases=2,Linecode=CABBTG04_4_2,Length=0.017000000,Units=km
new line.RML2567286 bus1=BBT1446180.1.2.0,bus2=RML202567286.1.2.0,Phases=2,Linecode=CABBTG04_4_2,Length=0.017000000,Units=km
new line.RML2567293 bus1=BBT1446180.1.2.0,bus2=RML202567293.1.2.0,Phases=2,Linecode=CABBTG05_4_2,Length=0.017000000,Units=km
new line.RML2567300 bus1=BBT1446180.2.3.0,bus2=RML202567300.2.3.0,Phases=2,Linecode=CABBTG04_4_2,Length=0.017000000,Units=km