new line.13641461 bus1=BBT4581874.1.2.0,bus2=BBT4581881.1.2.0,Phases=2,Linecode=BT808_BT808_4_2_3,Length=0.042260000,Units=km
new line.13641531 bus1=BBT4581958.1.2.0,bus2=BBT4581965.1.2.0,Phases=2,Linecode=BT808_BT808_4_2_3,Length=0.022460000,Units=km
new line.13641545 bus1=BBT4581951.1.2.0,bus2=BBT4581958.1.2.0,Phases=2,Linecode=BT808_BT808_4_2_3,Length=0.035620000,Units=km
new line.13641566 bus1=BBT4581944.1.2.0,bus2=BBT4581951.1.2.0,Phases=2,Linecode=BT808_BT808_4_2_3,Length=0.035620000,Units=km
new line.13641573 bus1=BBT4582007.1.2.3.0,bus2=BBT158771996.1.2.3.0,Phases=3,Linecode=BT803_BT803_4_3_4,Length=0.032410000,Units=km
new line.13641587 bus1=BBT4582014.1.2.3.0,bus2=BBT4582007.1.2.3.0,Phases=3,Linecode=BT803_BT803_4_3_4,Length=0.033410000,Units=km
new line.13641608 bus1=BBT4582175.1.2.3.0,bus2=BBT4582014.1.2.3.0,Phases=3,Linecode=BT803_BT803_4_3_4,Length=0.040600000,Units=km
new line.13641636 bus1=BBT4581937.1.2.0,bus2=BBT4581944.1.2.0,Phases=2,Linecode=BT807_BT807_4_2_3,Length=0.011030000,Units=km
new line.13641657 bus1=BBT4581930.1.2.0,bus2=BBT4581937.1.2.0,Phases=2,Linecode=BT807_BT807_4_2_3,Length=0.040240000,Units=km
new line.13641664 bus1=BBT4581923.1.2.0,bus2=BBT4581930.1.2.0,Phases=2,Linecode=BT518_BT518_7_2_1,Length=0.000510000,Units=km
new line.13641671 bus1=BBT4581930.1.2.0,bus2=BBT4581972.1.2.0,Phases=2,Linecode=BT807_BT807_4_2_3,Length=0.032410000,Units=km
new line.13641713 bus1=BBT4581979.1.2.0,bus2=BBT4581986.1.2.0,Phases=2,Linecode=BT808_BT808_4_2_3,Length=0.041250000,Units=km
new line.13641720 bus1=BBT4581986.1.2.0,bus2=BBT150679477.1.2.0,Phases=2,Linecode=BT808_BT808_4_2_3,Length=0.039410000,Units=km
new line.13641741 bus1=BBT117227483.1.2.3.0,bus2=BBT4582000.1.2.3.0,Phases=3,Linecode=BT803_BT803_4_3_4,Length=0.023660000,Units=km
new line.13641776 bus1=BBT4582049.1.2.3.0,bus2=BBT4582063.1.2.3.0,Phases=3,Linecode=BT810_BT810_4_3_4,Length=0.041830000,Units=km
new line.13641783 bus1=BBT4582049.1.2.3.0,bus2=BBT4582266.1.2.3.0,Phases=3,Linecode=BT803_BT803_4_3_4,Length=0.022650000,Units=km
new line.13641804 bus1=BBT4582126.1.2.3.0,bus2=BBT4582154.1.2.3.0,Phases=3,Linecode=BT803_BT803_4_3_4,Length=0.037530000,Units=km
new line.13641818 bus1=BBT4582042.1.2.3.0,bus2=BBT4582126.1.2.3.0,Phases=3,Linecode=BT803_BT803_4_3_4,Length=0.033300000,Units=km
new line.13641825 bus1=BBT4582035.1.2.3.0,bus2=BBT4582042.1.2.3.0,Phases=3,Linecode=BT521_BT521_7_3_1,Length=0.000510000,Units=km
new line.13641832 bus1=BBT4582042.1.2.3.0,bus2=BBT4582133.1.2.3.0,Phases=3,Linecode=BT803_BT803_4_3_4,Length=0.033300000,Units=km
new line.13641853 bus1=BBT4582133.1.2.3.0,bus2=BBT4582140.1.2.3.0,Phases=3,Linecode=BT803_BT803_4_3_4,Length=0.031930000,Units=km
new line.13641874 bus1=BBT4582140.1.2.3.0,bus2=BBT4582301.1.2.3.0,Phases=3,Linecode=BT803_BT803_4_3_4,Length=0.024520000,Units=km
new line.13642000 bus1=BBT4582154.1.2.3.0,bus2=BBT4582161.1.2.3.0,Phases=3,Linecode=BT810_BT810_4_3_4,Length=0.028630000,Units=km
new line.13642007 bus1=BBT4582154.1.2.3.0,bus2=BBT4582406.1.2.3.0,Phases=3,Linecode=BT810_BT810_4_3_4,Length=0.042880000,Units=km
new line.13642028 bus1=BBT4582014.1.2.3.0,bus2=BBT158771971.1.2.3.0,Phases=3,Linecode=BT803_BT803_4_3_4,Length=0.038490000,Units=km
new line.13642042 bus1=BBT4582175.1.2.3.0,bus2=BBT4582182.1.2.3.0,Phases=3,Linecode=BT803_BT803_4_3_4,Length=0.038410000,Units=km
new line.13642063 bus1=BBT4582231.1.2.3.0,bus2=BBT4582238.1.2.3.0,Phases=3,Linecode=BT810_BT810_4_3_4,Length=0.039670000,Units=km
new line.13642084 bus1=BBT4582224.1.2.3.0,bus2=BBT4582231.1.2.3.0,Phases=3,Linecode=BT810_BT810_4_3_4,Length=0.040410000,Units=km
new line.13642105 bus1=BBT4582217.1.2.3.0,bus2=BBT4582224.1.2.3.0,Phases=3,Linecode=BT810_BT810_4_3_4,Length=0.031860000,Units=km
new line.13642126 bus1=BBT4582203.1.2.3.0,bus2=BBT4582217.1.2.3.0,Phases=3,Linecode=BT810_BT810_4_3_4,Length=0.031480000,Units=km
new line.13642133 bus1=BBT4582203.1.2.3.0,bus2=BBT4582210.1.2.3.0,Phases=3,Linecode=BT810_BT810_4_3_4,Length=0.041250000,Units=km
new line.13642175 bus1=BBT4582196.1.2.3.0,bus2=BBT4582203.1.2.3.0,Phases=3,Linecode=BT810_BT810_4_3_4,Length=0.007970000,Units=km
new line.13642189 bus1=BBT4582189.1.2.3.0,bus2=BBT4582196.1.2.3.0,Phases=3,Linecode=BT810_BT810_4_3_4,Length=0.033900000,Units=km
new line.13642259 bus1=BBT4582287.1.2.3.0,bus2=BBT4582294.1.2.3.0,Phases=3,Linecode=BT810_BT810_4_3_4,Length=0.035210000,Units=km
new line.13642294 bus1=BBT4582280.1.2.3.0,bus2=BBT4582287.1.2.3.0,Phases=3,Linecode=BT810_BT810_4_3_4,Length=0.036220000,Units=km
new line.13642315 bus1=BBT4582273.1.2.3.0,bus2=BBT4582280.1.2.3.0,Phases=3,Linecode=BT810_BT810_4_3_4,Length=0.034210000,Units=km
new line.13642329 bus1=BBT4582266.1.2.3.0,bus2=BBT4582273.1.2.3.0,Phases=3,Linecode=BT803_BT803_4_3_4,Length=0.031200000,Units=km
new line.13642371 bus1=BBT4582315.1.2.3.0,bus2=BBT4582322.1.2.3.0,Phases=3,Linecode=BT810_BT810_4_3_4,Length=0.042600000,Units=km
new line.13642399 bus1=BBT4582308.1.2.3.0,bus2=BBT4582315.1.2.3.0,Phases=3,Linecode=BT810_BT810_4_3_4,Length=0.042450000,Units=km
new line.13642420 bus1=BBT4582336.1.2.3.0,bus2=BBT4582343.1.2.3.0,Phases=3,Linecode=BT810_BT810_4_3_4,Length=0.037120000,Units=km
new line.13642441 bus1=BBT4582301.1.2.3.0,bus2=BBT4582147.1.2.3.0,Phases=3,Linecode=BT803_BT803_4_3_4,Length=0.016480000,Units=km
new line.13642448 bus1=BBT4582301.1.2.3.0,bus2=BBT4582308.1.2.3.0,Phases=3,Linecode=BT810_BT810_4_3_4,Length=0.034680000,Units=km
new line.13642455 bus1=BBT4582301.1.2.3.0,bus2=BBT4582336.1.2.3.0,Phases=3,Linecode=BT810_BT810_4_3_4,Length=0.013680000,Units=km
new line.13642497 bus1=BBT4582343.1.2.3.0,bus2=BBT4582371.1.2.3.0,Phases=3,Linecode=BT810_BT810_4_3_4,Length=0.024840000,Units=km
new line.13642525 bus1=BBT4582406.1.2.3.0,bus2=BBT4582420.1.2.3.0,Phases=3,Linecode=BT810_BT810_4_3_4,Length=0.043810000,Units=km
new line.13642546 bus1=BBT4582399.1.2.3.0,bus2=BBT4582427.1.2.3.0,Phases=3,Linecode=BT810_BT810_4_3_4,Length=0.038080000,Units=km
new line.13642567 bus1=BBT4582392.1.2.3.0,bus2=BBT4582399.1.2.3.0,Phases=3,Linecode=BT810_BT810_4_3_4,Length=0.036770000,Units=km
new line.13642595 bus1=BBT4582385.1.2.3.0,bus2=BBT4582392.1.2.3.0,Phases=3,Linecode=BT810_BT810_4_3_4,Length=0.036320000,Units=km
new line.13642623 bus1=BBT4582371.1.2.3.0,bus2=BBT4582350.1.2.3.0,Phases=3,Linecode=BT810_BT810_4_3_4,Length=0.019800000,Units=km
new line.13642630 bus1=BBT4582371.1.2.3.0,bus2=BBT4582385.1.2.3.0,Phases=3,Linecode=BT810_BT810_4_3_4,Length=0.026140000,Units=km
new line.13642637 bus1=BBT4582371.1.2.3.0,bus2=BBT4582378.1.2.3.0,Phases=3,Linecode=BT810_BT810_4_3_4,Length=0.014850000,Units=km
new line.13642672 bus1=BBT4582546.1.2.0,bus2=BBT4582553.1.2.0,Phases=2,Linecode=BT808_BT808_4_2_3,Length=0.043040000,Units=km
new line.13642686 bus1=BBT4582539.1.2.0,bus2=BBT4582546.1.2.0,Phases=2,Linecode=BT808_BT808_4_2_3,Length=0.045020000,Units=km
new line.13642693 bus1=BBT4582532.1.2.0,bus2=BBT4582539.1.2.0,Phases=2,Linecode=BT808_BT808_4_2_3,Length=0.046260000,Units=km
new line.13642707 bus1=BBT4582525.1.2.0,bus2=BBT157731655.1.2.0,Phases=2,Linecode=BT808_BT808_4_2_3,Length=0.031420000,Units=km
new line.13642728 bus1=BBT4582518.1.2.0,bus2=BBT4582525.1.2.0,Phases=2,Linecode=BT808_BT808_4_2_3,Length=0.029440000,Units=km
new line.13642763 bus1=BBT4582455.1.2.0,bus2=BBT4582462.1.2.0,Phases=2,Linecode=BT808_BT808_4_2_3,Length=0.038770000,Units=km
new line.13432049 bus1=BBT3938266.1.2.3.0,bus2=BBT3938273.1.2.3.0,Phases=3,Linecode=BT810_BT810_4_3_4,Length=0.022460000,Units=km
new line.13432070 bus1=BBT3938259.1.2.3.0,bus2=BBT3938266.1.2.3.0,Phases=3,Linecode=BT810_BT810_4_3_4,Length=0.028130000,Units=km
new line.13432077 bus1=BBT3938259.1.2.3.0,bus2=BBT3938280.1.2.3.0,Phases=3,Linecode=BT810_BT810_4_3_4,Length=0.030610000,Units=km
new line.13432098 bus1=BBT3938252.1.2.3.0,bus2=BBT3938259.1.2.3.0,Phases=3,Linecode=BT810_BT810_4_3_4,Length=0.041930000,Units=km
new line.13432119 bus1=BBT3938245.1.2.3.0,bus2=BBT3938252.1.2.3.0,Phases=3,Linecode=BT810_BT810_4_3_4,Length=0.031420000,Units=km
new line.13432140 bus1=BBT3938287.1.2.3.0,bus2=BBT3938294.1.2.3.0,Phases=3,Linecode=BT810_BT810_4_3_4,Length=0.031760000,Units=km
new line.13432161 bus1=BBT3938294.1.2.3.0,bus2=BBT3938301.1.2.3.0,Phases=3,Linecode=BT810_BT810_4_3_4,Length=0.036840000,Units=km
new line.13432182 bus1=BBT3938301.1.2.3.0,bus2=BBT3938308.1.2.3.0,Phases=3,Linecode=BT810_BT810_4_3_4,Length=0.036090000,Units=km
new line.13432217 bus1=BBT3938322.1.2.3.0,bus2=BBT3938329.1.2.3.0,Phases=3,Linecode=BT810_BT810_4_3_4,Length=0.030320000,Units=km
new line.13432224 bus1=BBT3938322.1.2.3.0,bus2=BBT3938336.1.2.3.0,Phases=3,Linecode=BT810_BT810_4_3_4,Length=0.036090000,Units=km
new line.13432252 bus1=BBT3938336.1.2.3.0,bus2=BBT3938343.1.2.3.0,Phases=3,Linecode=BT810_BT810_4_3_4,Length=0.036170000,Units=km
new line.13432273 bus1=BBT3938343.1.2.3.0,bus2=BBT3938350.1.2.3.0,Phases=3,Linecode=BT810_BT810_4_3_4,Length=0.036790000,Units=km
new line.13432294 bus1=BBT4582238.1.2.3.0,bus2=BBT4582329.1.2.3.0,Phases=3,Linecode=BT810_BT810_4_3_4,Length=0.011220000,Units=km
new line.13432329 bus1=BBT3938224.1.2.3.0,bus2=BBT3938231.1.2.3.0,Phases=3,Linecode=BT803_BT803_4_3_4,Length=0.012280000,Units=km
new line.13432378 bus1=BBT3938231.1.2.3.0,bus2=BBT3938245.1.2.3.0,Phases=3,Linecode=BT810_BT810_4_3_4,Length=0.006530000,Units=km
new line.13432385 bus1=BBT3938231.1.2.3.0,bus2=BBT3938287.1.2.3.0,Phases=3,Linecode=BT810_BT810_4_3_4,Length=0.032520000,Units=km
new line.13432392 bus1=BBT3938231.1.2.3.0,bus2=BBT3938238.1.2.3.0,Phases=3,Linecode=BT803_BT803_4_3_4,Length=0.017370000,Units=km
new line.16361920 bus1=BBT21404217.1.2.0,bus2=BBT21404224.1.2.0,Phases=2,Linecode=BT808_BT808_4_2_3,Length=0.046180000,Units=km
new line.16361927 bus1=BBT21404224.1.2.0,bus2=BBT21404231.1.2.0,Phases=2,Linecode=BT808_BT808_4_2_3,Length=0.046120000,Units=km
new line.16822611 bus1=BBT57086682.1.2.3.0,bus2=BBT57086689.1.2.3.0,Phases=3,Linecode=BT513_BT513_7_3_1,Length=0.000510000,Units=km
new line.16822779 bus1=BBT57086689.1.2.3.0,bus2=BBT57086766.1.2.3.0,Phases=3,Linecode=BT803_BT803_4_3_4,Length=0.038490000,Units=km
new line.16822800 bus1=BBT57086689.1.2.3.0,bus2=BBT57086773.1.2.3.0,Phases=3,Linecode=BT803_BT803_4_3_4,Length=0.034810000,Units=km
new line.16822814 bus1=BBT57086773.1.2.3.0,bus2=BBT57086780.1.2.3.0,Phases=3,Linecode=BT810_BT810_4_3_4,Length=0.035680000,Units=km
new line.18163594 bus1=BBT110046029.1.2.0,bus2=BBT110048297.1.2.0,Phases=2,Linecode=BT808_BT808_4_2_3,Length=0.006840000,Units=km
new line.18163643 bus1=BBT110018379.1.2.0,bus2=BBT110019541.1.2.0,Phases=2,Linecode=BT808_BT808_4_2_3,Length=0.019160000,Units=km
new line.18163678 bus1=BBT155969525.1.2.0,bus2=BBT109999619.1.2.0,Phases=2,Linecode=BT808_BT808_4_2_3,Length=0.010040000,Units=km
new line.18163776 bus1=BBT110018379.1.2.0,bus2=BBT110019527.1.2.0,Phases=2,Linecode=BT808_BT808_4_2_3,Length=0.006840000,Units=km
new line.18164238 bus1=BBT109999619.1.2.0,bus2=BBT110001299.1.2.0,Phases=2,Linecode=BT808_BT808_4_2_3,Length=0.029200000,Units=km
new line.18165428 bus1=BBT109942044.1.2.0,bus2=BBT109942051.1.2.0,Phases=2,Linecode=BT513_BT513_7_2_1,Length=0.000510000,Units=km
new line.18165484 bus1=BBT109942051.1.2.0,bus2=BBT109945082.1.2.0,Phases=2,Linecode=BT807_BT807_4_2_3,Length=0.032520000,Units=km
new line.18165505 bus1=BBT109945082.1.2.0,bus2=BBT109945271.1.2.0,Phases=2,Linecode=BT808_BT808_4_2_3,Length=0.047450000,Units=km
new line.18165533 bus1=BBT109942051.1.2.0,bus2=BBT109945376.1.2.0,Phases=2,Linecode=BT807_BT807_4_2_3,Length=0.031860000,Units=km
new line.18165540 bus1=BBT109945271.1.2.0,bus2=BBT109945383.1.2.0,Phases=2,Linecode=BT808_BT808_4_2_3,Length=0.041000000,Units=km
new line.18165554 bus1=BBT109945383.1.2.0,bus2=BBT109945390.1.2.0,Phases=2,Linecode=BT808_BT808_4_2_3,Length=0.038410000,Units=km
new line.18165561 bus1=BBT2538399.1.2.3.0,bus2=BBT109945509.1.2.3.0,Phases=3,Linecode=BT810_BT810_4_3_4,Length=0.032840000,Units=km
new line.18165568 bus1=BBT109945509.1.2.3.0,bus2=BBT109945516.1.2.3.0,Phases=3,Linecode=BT810_BT810_4_3_4,Length=0.031860000,Units=km
new line.18165582 bus1=BBT109945516.1.2.3.0,bus2=BBT109945880.1.2.3.0,Phases=3,Linecode=BT810_BT810_4_3_4,Length=0.023480000,Units=km
new line.18165589 bus1=BBT109945082.1.2.0,bus2=BBT109946370.1.2.0,Phases=2,Linecode=BT808_BT808_4_2_3,Length=0.032520000,Units=km
new line.18165596 bus1=BBT109946370.1.2.0,bus2=BBT109946377.1.2.0,Phases=2,Linecode=BT808_BT808_4_2_3,Length=0.041020000,Units=km
new line.18166023 bus1=BBT109945376.1.2.0,bus2=BBT109973348.1.2.0,Phases=2,Linecode=BT808_BT808_4_2_3,Length=0.016450000,Units=km
new line.18166037 bus1=BBT109945376.1.2.0,bus2=BBT109973642.1.2.0,Phases=2,Linecode=BT808_BT808_4_2_3,Length=0.034890000,Units=km
new line.18166044 bus1=BBT109973642.1.2.0,bus2=BBT109973852.1.2.0,Phases=2,Linecode=BT808_BT808_4_2_3,Length=0.026930000,Units=km
new line.18166051 bus1=BBT109973852.1.2.0,bus2=BBT109974062.1.2.0,Phases=2,Linecode=BT808_BT808_4_2_3,Length=0.027460000,Units=km
new line.18166058 bus1=BBT109973852.1.2.0,bus2=BBT109974132.1.2.0,Phases=2,Linecode=BT808_BT808_4_2_3,Length=0.011400000,Units=km
new line.18166065 bus1=BBT109974132.1.2.0,bus2=BBT109974356.1.2.0,Phases=2,Linecode=BT808_BT808_4_2_3,Length=0.032840000,Units=km
new line.18166072 bus1=BBT109973348.1.2.0,bus2=BBT109974755.1.2.0,Phases=2,Linecode=BT808_BT808_4_2_3,Length=0.036970000,Units=km
new line.18166079 bus1=BBT109974755.1.2.0,bus2=BBT109974762.1.2.0,Phases=2,Linecode=BT808_BT808_4_2_3,Length=0.030560000,Units=km
new line.18166093 bus1=BBT109973348.1.2.0,bus2=BBT109975294.1.2.0,Phases=2,Linecode=BT808_BT808_4_2_3,Length=0.026220000,Units=km
new line.18166100 bus1=BBT109975294.1.2.0,bus2=BBT109975371.1.2.0,Phases=2,Linecode=BT808_BT808_4_2_3,Length=0.035620000,Units=km
new line.18166135 bus1=BBT109975371.1.2.0,bus2=BBT109978486.1.2.0,Phases=2,Linecode=BT808_BT808_4_2_3,Length=0.028010000,Units=km
new line.18166142 bus1=BBT109978486.1.2.0,bus2=BBT109978689.1.2.0,Phases=2,Linecode=BT808_BT808_4_2_3,Length=0.033670000,Units=km
new line.18166219 bus1=BBT109987096.1.2.0,bus2=BBT109987103.1.2.0,Phases=2,Linecode=BT513_BT513_7_2_1,Length=0.000510000,Units=km
new line.18166282 bus1=BBT109987103.1.2.0,bus2=BBT109991058.1.2.0,Phases=2,Linecode=BT807_BT807_4_2_3,Length=0.027860000,Units=km
new line.18166289 bus1=BBT109991058.1.2.0,bus2=BBT109991191.1.2.0,Phases=2,Linecode=BT807_BT807_4_2_3,Length=0.029200000,Units=km
new line.18166296 bus1=BBT109991191.1.2.0,bus2=BBT109991324.1.2.0,Phases=2,Linecode=BT807_BT807_4_2_3,Length=0.010040000,Units=km
new line.18166317 bus1=BBT109990603.1.2.0,bus2=BBT109991849.1.2.0,Phases=2,Linecode=BT808_BT808_4_2_3,Length=0.038320000,Units=km
new line.18166324 bus1=BBT109990603.1.2.0,bus2=BBT109992241.1.2.0,Phases=2,Linecode=BT808_BT808_4_2_3,Length=0.026930000,Units=km
new line.18166331 bus1=BBT109992241.1.2.0,bus2=BBT109992248.1.2.0,Phases=2,Linecode=BT808_BT808_4_2_3,Length=0.020520000,Units=km
new line.18166338 bus1=BBT109992248.1.2.0,bus2=BBT109992255.1.2.0,Phases=2,Linecode=BT808_BT808_4_2_3,Length=0.026930000,Units=km
new line.18166345 bus1=BBT109992248.1.2.0,bus2=BBT109992325.1.2.0,Phases=2,Linecode=BT808_BT808_4_2_3,Length=0.011400000,Units=km
new line.18166352 bus1=BBT109992325.1.2.0,bus2=BBT109992444.1.2.0,Phases=2,Linecode=BT808_BT808_4_2_3,Length=0.037620000,Units=km
new line.18166359 bus1=BBT109991191.1.2.0,bus2=BBT109992661.1.2.0,Phases=2,Linecode=BT808_BT808_4_2_3,Length=0.008220000,Units=km
new line.18166366 bus1=BBT109992661.1.2.0,bus2=BBT109992780.1.2.0,Phases=2,Linecode=BT808_BT808_4_2_3,Length=0.030750000,Units=km
new line.18166373 bus1=BBT109991191.1.2.0,bus2=BBT109992899.1.2.0,Phases=2,Linecode=BT808_BT808_4_2_3,Length=0.019380000,Units=km
new line.18166380 bus1=BBT109992899.1.2.0,bus2=BBT109992906.1.2.0,Phases=2,Linecode=BT808_BT808_4_2_3,Length=0.024560000,Units=km
new line.18166387 bus1=BBT109992906.1.2.0,bus2=BBT109993039.1.2.0,Phases=2,Linecode=BT808_BT808_4_2_3,Length=0.032700000,Units=km
new line.18166394 bus1=BBT109992906.1.2.0,bus2=BBT109993046.1.2.0,Phases=2,Linecode=BT808_BT808_4_2_3,Length=0.025820000,Units=km
new line.18166401 bus1=BBT109991058.1.2.0,bus2=BBT109993585.1.2.0,Phases=2,Linecode=BT808_BT808_4_2_3,Length=0.033950000,Units=km
new line.18166415 bus1=BBT109993585.1.2.0,bus2=BBT109993795.1.2.0,Phases=2,Linecode=BT808_BT808_4_2_3,Length=0.030560000,Units=km
new line.18166492 bus1=BBT109998751.1.2.0,bus2=BBT156923108.1.2.0,Phases=2,Linecode=BT807_BT807_4_2_3,Length=0.038840000,Units=km
new line.18166499 bus1=BBT156923108.1.2.0,bus2=BBT109998968.1.2.0,Phases=2,Linecode=BT807_BT807_4_2_3,Length=0.038840000,Units=km
new line.18166513 bus1=BBT109999619.1.2.0,bus2=BBT109998751.1.2.0,Phases=2,Linecode=BT808_BT808_4_2_3,Length=0.011400000,Units=km
new line.18166555 bus1=BBT109999619.1.2.0,bus2=BBT110000452.1.2.0,Phases=2,Linecode=BT808_BT808_4_2_3,Length=0.010980000,Units=km
new line.18166562 bus1=BBT110000452.1.2.0,bus2=BBT110000732.1.2.0,Phases=2,Linecode=BT808_BT808_4_2_3,Length=0.036170000,Units=km
new line.18166576 bus1=BBT110000732.1.2.0,bus2=BBT110000816.1.2.0,Phases=2,Linecode=BT808_BT808_4_2_3,Length=0.035230000,Units=km
new line.18166597 bus1=BBT109998968.1.2.0,bus2=BBT110000837.1.2.0,Phases=2,Linecode=BT808_BT808_4_2_3,Length=0.023550000,Units=km
new line.18166611 bus1=BBT110000837.1.2.0,bus2=BBT110000851.1.2.0,Phases=2,Linecode=BT808_BT808_4_2_3,Length=0.030130000,Units=km
new line.18166618 bus1=BBT110000851.1.2.0,bus2=BBT110000858.1.2.0,Phases=2,Linecode=BT808_BT808_4_2_3,Length=0.030560000,Units=km
new line.18166625 bus1=BBT110000858.1.2.0,bus2=BBT110001068.1.2.0,Phases=2,Linecode=BT808_BT808_4_2_3,Length=0.030130000,Units=km
new line.18166653 bus1=BBT110001299.1.2.0,bus2=BBT110001306.1.2.0,Phases=2,Linecode=BT808_BT808_4_2_3,Length=0.040180000,Units=km
new line.18167024 bus1=BBT110017399.1.2.0,bus2=BBT110017406.1.2.0,Phases=2,Linecode=BT513_BT513_7_2_1,Length=0.000510000,Units=km
new line.18167080 bus1=BBT110017406.1.2.0,bus2=BBT110018295.1.2.0,Phases=2,Linecode=BT807_BT807_4_2_3,Length=0.038320000,Units=km
new line.18167094 bus1=BBT110017406.1.2.0,bus2=BBT110018379.1.2.0,Phases=2,Linecode=BT807_BT807_4_2_3,Length=0.011940000,Units=km
new line.18167101 bus1=BBT110018379.1.2.0,bus2=BBT110018463.1.2.0,Phases=2,Linecode=BT807_BT807_4_2_3,Length=0.020520000,Units=km
new line.18167108 bus1=BBT110018295.1.2.0,bus2=BBT110018470.1.2.0,Phases=2,Linecode=BT808_BT808_4_2_3,Length=0.038320000,Units=km
new line.18167129 bus1=BBT110018470.1.2.0,bus2=BBT110019114.1.2.0,Phases=2,Linecode=BT808_BT808_4_2_3,Length=0.041050000,Units=km
new line.18167136 bus1=BBT110019114.1.2.0,bus2=BBT110019156.1.2.0,Phases=2,Linecode=BT808_BT808_4_2_3,Length=0.030430000,Units=km
new line.18167143 bus1=BBT110018463.1.2.0,bus2=BBT110019254.1.2.0,Phases=2,Linecode=BT808_BT808_4_2_3,Length=0.035120000,Units=km
new line.18167150 bus1=BBT110019254.1.2.0,bus2=BBT110019261.1.2.0,Phases=2,Linecode=BT808_BT808_4_2_3,Length=0.036490000,Units=km
new line.18167157 bus1=BBT110019261.1.2.0,bus2=BBT110019268.1.2.0,Phases=2,Linecode=BT808_BT808_4_2_3,Length=0.027610000,Units=km
new line.18167164 bus1=BBT110019261.1.2.0,bus2=BBT110019324.1.2.0,Phases=2,Linecode=BT808_BT808_4_2_3,Length=0.036860000,Units=km
new line.18167178 bus1=BBT110019324.1.2.0,bus2=BBT110019457.1.2.0,Phases=2,Linecode=BT808_BT808_4_2_3,Length=0.030870000,Units=km
new line.18167535 bus1=BBT110042767.1.2.0,bus2=BBT110042774.1.2.0,Phases=2,Linecode=BT513_BT513_7_2_1,Length=0.000510000,Units=km
new line.18167598 bus1=BBT110042774.1.2.0,bus2=BBT110045735.1.2.0,Phases=2,Linecode=BT807_BT807_4_2_3,Length=0.030560000,Units=km
new line.18167605 bus1=BBT110042774.1.2.0,bus2=BBT110046029.1.2.0,Phases=2,Linecode=BT807_BT807_4_2_3,Length=0.011940000,Units=km
new line.18167612 bus1=BBT110046029.1.2.0,bus2=BBT110046036.1.2.0,Phases=2,Linecode=BT807_BT807_4_2_3,Length=0.023300000,Units=km
new line.18167619 bus1=BBT110046036.1.2.0,bus2=BBT110046351.1.2.0,Phases=2,Linecode=BT808_BT808_4_2_3,Length=0.038840000,Units=km
new line.18167633 bus1=BBT110046351.1.2.0,bus2=BBT110046624.1.2.0,Phases=2,Linecode=BT808_BT808_4_2_3,Length=0.031880000,Units=km
new line.18167647 bus1=BBT110046351.1.2.0,bus2=BBT110046638.1.2.0,Phases=2,Linecode=BT808_BT808_4_2_3,Length=0.035170000,Units=km
new line.18167668 bus1=BBT110045735.1.2.0,bus2=BBT110047310.1.2.0,Phases=2,Linecode=BT808_BT808_4_2_3,Length=0.029730000,Units=km
new line.18167675 bus1=BBT110047310.1.2.0,bus2=BBT110047884.1.2.0,Phases=2,Linecode=BT808_BT808_4_2_3,Length=0.030200000,Units=km
new line.18167689 bus1=BBT110047310.1.2.0,bus2=BBT110047996.1.2.0,Phases=2,Linecode=BT808_BT808_4_2_3,Length=0.028210000,Units=km
new line.18167696 bus1=BBT110047996.1.2.0,bus2=BBT110048031.1.2.0,Phases=2,Linecode=BT808_BT808_4_2_3,Length=0.030430000,Units=km
new line.18167703 bus1=BBT110048031.1.2.0,bus2=BBT110048136.1.2.0,Phases=2,Linecode=BT808_BT808_4_2_3,Length=0.030430000,Units=km
new line.18167717 bus1=BBT110048136.1.2.0,bus2=BBT110048143.1.2.0,Phases=2,Linecode=BT808_BT808_4_2_3,Length=0.039370000,Units=km
new line.18167787 bus1=BBT110048640.1.2.0,bus2=BBT110049165.1.2.0,Phases=2,Linecode=BT808_BT808_4_2_3,Length=0.027740000,Units=km
new line.18167815 bus1=BBT110049165.1.2.0,bus2=BBT110049235.1.2.0,Phases=2,Linecode=BT808_BT808_4_2_3,Length=0.030130000,Units=km
new line.18167822 bus1=BBT110049235.1.2.0,bus2=BBT110049263.1.2.0,Phases=2,Linecode=BT808_BT808_4_2_3,Length=0.032010000,Units=km
new line.18167836 bus1=BBT110049263.1.2.0,bus2=BBT110049298.1.2.0,Phases=2,Linecode=BT808_BT808_4_2_3,Length=0.031070000,Units=km
new line.11835566 bus1=BBT2824461.1.2.0,bus2=BBT2824468.1.2.0,Phases=2,Linecode=BT808_BT808_4_2_3,Length=0.039680000,Units=km
new line.12685436 bus1=BBT3013447.1.2.3.0,bus2=BBT3013454.1.2.3.0,Phases=3,Linecode=BT810_BT810_4_3_4,Length=0.040000000,Units=km
new line.12685457 bus1=BBT3013454.1.2.3.0,bus2=BBT3013461.1.2.3.0,Phases=3,Linecode=BT810_BT810_4_3_4,Length=0.045820000,Units=km
new line.12685478 bus1=BBT3013461.1.2.0,bus2=BBT27198880.1.2.0,Phases=2,Linecode=BT808_BT808_4_2_3,Length=0.047090000,Units=km
new line.13528082 bus1=BBT4295490.1.2.3.0,bus2=BBT4295497.1.2.3.0,Phases=3,Linecode=BT514_BT514_7_3_1,Length=0.000510000,Units=km
new line.17992731 bus1=BBT96286045.1.2.3.0,bus2=BBT96286052.1.2.3.0,Phases=3,Linecode=BT514_BT514_7_3_1,Length=0.000510000,Units=km
new line.18442677 bus1=BBT1209001.1.2.3.0,bus2=BBT127748161.1.2.3.0,Phases=3,Linecode=BT803_BT803_4_3_4,Length=0.037750000,Units=km
new line.18442691 bus1=BBT127748161.1.2.3.0,bus2=BBT127748259.1.2.3.0,Phases=3,Linecode=BT803_BT803_4_3_4,Length=0.034890000,Units=km
new line.18443251 bus1=BBT127801949.1.2.3.0,bus2=BBT1209001.1.2.3.0,Phases=3,Linecode=BT803_BT803_4_3_4,Length=0.031220000,Units=km
new line.18443321 bus1=BBT127801949.1.2.3.0,bus2=BBT127805295.1.2.3.0,Phases=3,Linecode=BT803_BT803_4_3_4,Length=0.005950000,Units=km
new line.18443328 bus1=BBT127805295.1.2.3.0,bus2=BBT127805680.1.2.3.0,Phases=3,Linecode=BT803_BT803_4_3_4,Length=0.029860000,Units=km
new line.18443377 bus1=BBT127805680.1.2.3.0,bus2=BBT127809201.1.2.3.0,Phases=3,Linecode=BT803_BT803_4_3_4,Length=0.030870000,Units=km
new line.18443384 bus1=BBT127809201.1.2.3.0,bus2=BBT127809208.1.2.3.0,Phases=3,Linecode=BT803_BT803_4_3_4,Length=0.036940000,Units=km
new line.18443391 bus1=BBT127809201.1.2.3.0,bus2=BBT127809558.1.2.3.0,Phases=3,Linecode=BT803_BT803_4_3_4,Length=0.029790000,Units=km
new line.18443398 bus1=BBT127809558.1.2.3.0,bus2=BBT127809600.1.2.3.0,Phases=3,Linecode=BT803_BT803_4_3_4,Length=0.035700000,Units=km
new line.18443461 bus1=BBT148929027.1.2.3.0,bus2=BBT127819498.1.2.3.0,Phases=3,Linecode=BT803_BT803_4_3_4,Length=0.029730000,Units=km
new line.18443468 bus1=BBT127819498.1.2.3.0,bus2=BBT127819505.1.2.3.0,Phases=3,Linecode=BT803_BT803_4_3_4,Length=0.008220000,Units=km
new line.18443475 bus1=BBT127819505.1.2.3.0,bus2=BBT127819512.1.2.3.0,Phases=3,Linecode=BT803_BT803_4_3_4,Length=0.035360000,Units=km
new line.18443482 bus1=BBT127819512.1.2.3.0,bus2=BBT127819806.1.2.3.0,Phases=3,Linecode=BT803_BT803_4_3_4,Length=0.035930000,Units=km
new line.18443489 bus1=BBT127819806.1.2.3.0,bus2=BBT152618843.1.2.3.0,Phases=3,Linecode=BT803_BT803_4_3_4,Length=0.035090000,Units=km
new line.18443587 bus1=BBT148929027.1.2.3.0,bus2=BBT127826330.1.2.3.0,Phases=3,Linecode=BT803_BT803_4_3_4,Length=0.030830000,Units=km
new line.18443594 bus1=BBT127826330.1.2.3.0,bus2=BBT127826337.1.2.3.0,Phases=3,Linecode=BT803_BT803_4_3_4,Length=0.044130000,Units=km
new line.18443601 bus1=BBT127826330.1.2.3.0,bus2=BBT127826547.1.2.3.0,Phases=3,Linecode=BT803_BT803_4_3_4,Length=0.009120000,Units=km
new line.18443608 bus1=BBT127826547.1.2.3.0,bus2=BBT127827044.1.2.3.0,Phases=3,Linecode=BT803_BT803_4_3_4,Length=0.035700000,Units=km
new line.18443615 bus1=BBT127827044.1.2.3.0,bus2=BBT127827149.1.2.3.0,Phases=3,Linecode=BT803_BT803_4_3_4,Length=0.035700000,Units=km
new line.18443622 bus1=BBT127827149.1.2.3.0,bus2=BBT127827723.1.2.3.0,Phases=3,Linecode=BT803_BT803_4_3_4,Length=0.034890000,Units=km
new line.18443629 bus1=BBT127826337.1.2.3.0,bus2=BBT127829466.1.2.3.0,Phases=3,Linecode=BT803_BT803_4_3_4,Length=0.005100000,Units=km
new line.18443636 bus1=BBT127829466.1.2.3.0,bus2=BBT127829942.1.2.3.0,Phases=3,Linecode=BT803_BT803_4_3_4,Length=0.037120000,Units=km
new line.18443657 bus1=BBT127830691.1.2.3.0,bus2=BBT127830698.1.2.3.0,Phases=3,Linecode=BT518_BT518_7_3_1,Length=0.000510000,Units=km
new line.18443720 bus1=BBT127819498.1.2.3.0,bus2=BBT127837264.1.2.3.0,Phases=3,Linecode=BT803_BT803_4_3_4,Length=0.031290000,Units=km
new line.18443727 bus1=BBT127837264.1.2.3.0,bus2=BBT127837271.1.2.3.0,Phases=3,Linecode=BT803_BT803_4_3_4,Length=0.040000000,Units=km
new line.18443734 bus1=BBT127837271.1.2.3.0,bus2=BBT127837278.1.2.3.0,Phases=3,Linecode=BT803_BT803_4_3_4,Length=0.011400000,Units=km
new line.18443741 bus1=BBT127837278.1.2.3.0,bus2=BBT127837327.1.2.3.0,Phases=3,Linecode=BT803_BT803_4_3_4,Length=0.031220000,Units=km
new line.18443748 bus1=BBT127837271.1.2.3.0,bus2=BBT127837334.1.2.3.0,Phases=3,Linecode=BT803_BT803_4_3_4,Length=0.034510000,Units=km
new line.18443755 bus1=BBT127830698.1.2.3.0,bus2=BBT127837341.1.2.3.0,Phases=3,Linecode=BT803_BT803_4_3_4,Length=0.033640000,Units=km
new line.18443762 bus1=BBT127837341.1.2.3.0,bus2=BBT127837348.1.2.3.0,Phases=3,Linecode=BT803_BT803_4_3_4,Length=0.036060000,Units=km
new line.18443769 bus1=BBT127837348.1.2.3.0,bus2=BBT127837355.1.2.3.0,Phases=3,Linecode=BT803_BT803_4_3_4,Length=0.036060000,Units=km
new line.18443776 bus1=BBT127837355.1.2.3.0,bus2=BBT127837446.1.2.3.0,Phases=3,Linecode=BT803_BT803_4_3_4,Length=0.036220000,Units=km
new line.18443783 bus1=BBT127837355.1.2.3.0,bus2=BBT127820156.1.2.3.0,Phases=3,Linecode=BT803_BT803_4_3_4,Length=0.032840000,Units=km
new line.18443790 bus1=BBT127830698.1.2.3.0,bus2=BBT127837810.1.2.3.0,Phases=3,Linecode=BT803_BT803_4_3_4,Length=0.033640000,Units=km
new line.18443797 bus1=BBT127837810.1.2.3.0,bus2=BBT127837817.1.2.3.0,Phases=3,Linecode=BT803_BT803_4_3_4,Length=0.032920000,Units=km
new line.18443804 bus1=BBT127837817.1.2.3.0,bus2=BBT127837824.1.2.3.0,Phases=3,Linecode=BT803_BT803_4_3_4,Length=0.031500000,Units=km
new line.18443811 bus1=BBT127837824.1.2.3.0,bus2=BBT127837831.1.2.3.0,Phases=3,Linecode=BT803_BT803_4_3_4,Length=0.039240000,Units=km
new line.18443818 bus1=BBT127837831.1.2.3.0,bus2=BBT127837838.1.2.3.0,Phases=3,Linecode=BT803_BT803_4_3_4,Length=0.011630000,Units=km
new line.18443825 bus1=BBT127837838.1.2.3.0,bus2=BBT127837845.1.2.3.0,Phases=3,Linecode=BT803_BT803_4_3_4,Length=0.034510000,Units=km
new line.18443832 bus1=BBT127837341.1.2.3.0,bus2=BBT127837852.1.2.3.0,Phases=3,Linecode=BT803_BT803_4_3_4,Length=0.033450000,Units=km
new line.18443839 bus1=BBT127837852.1.2.3.0,bus2=BBT127837859.1.2.3.0,Phases=3,Linecode=BT803_BT803_4_3_4,Length=0.029790000,Units=km
new line.18443846 bus1=BBT127837859.1.2.3.0,bus2=BBT127837978.1.2.3.0,Phases=3,Linecode=BT803_BT803_4_3_4,Length=0.029790000,Units=km
new line.18710741 bus1=BBT65532091.1.2.3.0,bus2=BBT148849036.1.2.3.0,Phases=3,Linecode=BT803_BT803_4_3_4,Length=0.023460000,Units=km
new line.18710759 bus1=BBT148849370.1.2.3.0,bus2=BBT65532091.1.2.3.0,Phases=3,Linecode=BT518_BT518_7_3_1,Length=0.000510000,Units=km
new line.18710845 bus1=BBT148849036.1.2.3.0,bus2=BBT148853315.1.2.3.0,Phases=3,Linecode=BT803_BT803_4_3_4,Length=0.027000000,Units=km
new line.18710847 bus1=BBT148853315.1.2.3.0,bus2=BBT148853330.1.2.3.0,Phases=3,Linecode=BT803_BT803_4_3_4,Length=0.031620000,Units=km
new line.18710850 bus1=BBT148853330.1.2.3.0,bus2=BBT148853333.1.2.3.0,Phases=3,Linecode=BT803_BT803_4_3_4,Length=0.031760000,Units=km
new line.18710902 bus1=BBT65533638.1.2.3.0,bus2=BBT148853711.1.2.3.0,Phases=3,Linecode=BT803_BT803_4_3_4,Length=0.038610000,Units=km
new line.18710905 bus1=BBT148853711.1.2.3.0,bus2=BBT148853712.1.2.3.0,Phases=3,Linecode=BT803_BT803_4_3_4,Length=0.044040000,Units=km
new line.17429343 bus1=BBT84144895.1.2.3.0,bus2=BBT1232507.1.2.3.0,Phases=3,Linecode=BT509_BT509_7_3_1,Length=0.000510000,Units=km
new line.17442398 bus1=BBT1211171.1.2.3.0,bus2=BBT67914156.1.2.3.0,Phases=3,Linecode=BT810_BT810_4_3_4,Length=0.034280000,Units=km
new line.17444183 bus1=BBT3752101.1.2.0,bus2=BBT67993900.1.2.0,Phases=2,Linecode=BT808_BT808_4_2_3,Length=0.041000000,Units=km
new line.17444190 bus1=BBT67993900.1.2.0,bus2=BBT67993977.1.2.0,Phases=2,Linecode=BT808_BT808_4_2_3,Length=0.041250000,Units=km
new line.17444197 bus1=BBT67993977.1.2.0,bus2=BBT67993984.1.2.0,Phases=2,Linecode=BT808_BT808_4_2_3,Length=0.041250000,Units=km
new line.17444204 bus1=BBT67993984.1.2.0,bus2=BBT67994103.1.2.0,Phases=2,Linecode=BT808_BT808_4_2_3,Length=0.039410000,Units=km