new load.3009013136M1 bus1=BMT103183306.1.2.3.0,Phases=3,kv=13.8,kW=23.07128,pf=0.92,Vminpu=0.93,Vmaxpu=1.5,model=1,daily=A4-3,status=variable
new load.3009014778M1 bus1=BMT150342199.1.2.3.0,Phases=3,kv=13.8,kW=58.72688,pf=0.92,Vminpu=0.93,Vmaxpu=1.5,model=1,daily=A4-3,status=variable
new load.3009015414M1 bus1=BMT171505268.1.2.3.0,Phases=3,kv=13.8,kW=33.65454,pf=0.92,Vminpu=0.93,Vmaxpu=1.5,model=1,daily=A4-2,status=variable
new load.3009015417M1 bus1=BMT162012196.1.2.3.0,Phases=3,kv=13.8,kW=132.30856,pf=0.92,Vminpu=0.93,Vmaxpu=1.5,model=1,daily=A4-4,status=variable
new load.3009015497M1 bus1=BMT103183859.1.2.3.0,Phases=3,kv=13.8,kW=38.14182,pf=0.92,Vminpu=0.93,Vmaxpu=1.5,model=1,daily=A4-2,status=variable
new load.3009015798M1 bus1=BMT161227280.1.2.3.0,Phases=3,kv=13.8,kW=32.01014,pf=0.92,Vminpu=0.93,Vmaxpu=1.5,model=1,daily=A4-4,status=variable
new load.3009017170M1 bus1=BMT103182984.1.2.3.0,Phases=3,kv=13.8,kW=67.11644,pf=0.92,Vminpu=0.93,Vmaxpu=1.5,model=1,daily=A4-3,status=variable
new load.3009017194M1 bus1=BMT103182627.1.2.3.0,Phases=3,kv=13.8,kW=1.59614,pf=0.92,Vminpu=0.93,Vmaxpu=1.5,model=1,daily=A4-1,status=variable
new load.3009021600M1 bus1=BMT150342203.1.2.3.0,Phases=3,kv=13.8,kW=4.78844,pf=0.92,Vminpu=0.93,Vmaxpu=1.5,model=1,daily=A4-1,status=variable
new load.3010370417M1 bus1=BMT103183376.1.2.3.0,Phases=3,kv=13.8,kW=20.19272,pf=0.92,Vminpu=0.93,Vmaxpu=1.5,model=1,daily=A4-2,status=variable
new load.3012248193M1 bus1=BMT156639050.1.2.3.0,Phases=3,kv=13.8,kW=33.55822,pf=0.92,Vminpu=0.93,Vmaxpu=1.5,model=1,daily=A4-3,status=variable
