new load.3000080471M1 bus1=RML201855528.1.0,Phases=1,kv=0.127,kW=1.17196,pf=0.92,Vminpu=0.92,Vmaxpu=1.5,model=1,daily=RES1_4,status=variable
new load.3000080472M1 bus1=RML201855640.1.0,Phases=1,kv=0.127,kW=0.63074,pf=0.92,Vminpu=0.92,Vmaxpu=1.5,model=1,daily=RES1_1,status=variable
new load.3000080473M1 bus1=RML201855626.2.0,Phases=1,kv=0.127,kW=1.0232,pf=0.92,Vminpu=0.92,Vmaxpu=1.5,model=1,daily=RES1_3,status=variable
new load.3000080474M1 bus1=RML201855647.1.3.0,Phases=2,kv=0.22,kW=0.62124,pf=0.92,Vminpu=0.92,Vmaxpu=1.5,model=1,daily=RES2_19,status=variable
new load.3000080475M1 bus1=RML201855647.1.3.0,Phases=2,kv=0.22,kW=0.74132,pf=0.92,Vminpu=0.92,Vmaxpu=1.5,model=1,daily=RES1_12,status=variable
new load.3000080469M1 bus1=RML201855654.2.0,Phases=1,kv=0.127,kW=0.15428,pf=0.92,Vminpu=0.92,Vmaxpu=1.5,model=1,daily=RES1_23,status=variable
new load.3000965214M1 bus1=RML201858748.3.0,Phases=1,kv=0.127,kW=1.2546,pf=0.92,Vminpu=0.92,Vmaxpu=1.5,model=1,daily=RES3_11,status=variable
new load.3000965216M1 bus1=RML201858741.3.0,Phases=1,kv=0.127,kW=0.75062,pf=0.92,Vminpu=0.92,Vmaxpu=1.5,model=1,daily=RES2_6,status=variable
new load.3000080483M1 bus1=RML201861849.2.3.0,Phases=2,kv=0.22,kW=2.3134,pf=0.92,Vminpu=0.92,Vmaxpu=1.5,model=1,daily=RES5_3,status=variable
new load.3000080484M1 bus1=RML201861891.3.0,Phases=1,kv=0.127,kW=1.12284,pf=0.92,Vminpu=0.92,Vmaxpu=1.5,model=1,daily=RES1_20,status=variable
new load.3000080485M1 bus1=RML201861898.1.2.0,Phases=2,kv=0.22,kW=0.61926,pf=0.92,Vminpu=0.92,Vmaxpu=1.5,model=1,daily=RES2_6,status=variable
new load.3000080486M1 bus1=RML201861856.3.0,Phases=1,kv=0.127,kW=0.6408,pf=0.92,Vminpu=0.92,Vmaxpu=1.5,model=1,daily=RES1_6,status=variable
new load.3000080487M1 bus1=RML201861863.2.0,Phases=1,kv=0.127,kW=0.29434,pf=0.92,Vminpu=0.92,Vmaxpu=1.5,model=1,daily=RES1_1,status=variable
new load.3000080488M1 bus1=RML201861919.2.3.0,Phases=2,kv=0.22,kW=0.01926,pf=0.92,Vminpu=0.92,Vmaxpu=1.5,model=1,daily=RES2_17,status=variable
new load.3000080490M1 bus1=RML201861905.1.2.3.0,Phases=3,kv=0.22,kW=0.35648,pf=0.92,Vminpu=0.92,Vmaxpu=1.5,model=1,daily=COM1_12,status=variable
new load.3000080491M1 bus1=RML201861912.1.2.3.0,Phases=3,kv=0.22,kW=0.07566,pf=0.92,Vminpu=0.92,Vmaxpu=1.5,model=1,daily=COM1_14,status=variable
new load.3000080468M1 bus1=RML201861786.1.2.0,Phases=2,kv=0.22,kW=1.08792,pf=0.92,Vminpu=0.92,Vmaxpu=1.5,model=1,daily=RES2_2,status=variable
new load.3000965207M1 bus1=RML201863515.2.0,Phases=1,kv=0.127,kW=0.8856,pf=0.92,Vminpu=0.92,Vmaxpu=1.5,model=1,daily=RES2_9,status=variable
new load.3000965208M1 bus1=RML201863445.3.0,Phases=1,kv=0.127,kW=0.48204,pf=0.92,Vminpu=0.92,Vmaxpu=1.5,model=1,daily=RES1_11,status=variable
new load.3000965209M1 bus1=RML201863459.3.0,Phases=1,kv=0.127,kW=0.312,pf=0.92,Vminpu=0.92,Vmaxpu=1.5,model=1,daily=RES1_10,status=variable
new load.3000965210M1 bus1=RML201863389.2.0,Phases=1,kv=0.127,kW=0.0176,pf=0.92,Vminpu=0.92,Vmaxpu=1.5,model=1,daily=RES2_13,status=variable
new load.3000965211M1 bus1=RML201863382.2.0,Phases=1,kv=0.127,kW=0.4382,pf=0.92,Vminpu=0.92,Vmaxpu=1.5,model=1,daily=RES2_1,status=variable
new load.3000965212M1 bus1=RML201858797.3.0,Phases=1,kv=0.127,kW=0.6756,pf=0.92,Vminpu=0.92,Vmaxpu=1.5,model=1,daily=RES2_21,status=variable
new load.3000080518M1 bus1=RML201863718.1.2.0,Phases=2,kv=0.22,kW=0.23766,pf=0.92,Vminpu=0.92,Vmaxpu=1.5,model=1,daily=RES3_17,status=variable
new load.3000080519M1 bus1=RML201863704.2.0,Phases=1,kv=0.127,kW=0.4656,pf=0.92,Vminpu=0.92,Vmaxpu=1.5,model=1,daily=RES2_7,status=variable
new load.3000080520M1 bus1=RML201863711.2.3.0,Phases=2,kv=0.22,kW=0.80068,pf=0.92,Vminpu=0.92,Vmaxpu=1.5,model=1,daily=RES2_5,status=variable
new load.3000080521M1 bus1=RML201863732.1.3.0,Phases=2,kv=0.22,kW=1.2766,pf=0.92,Vminpu=0.92,Vmaxpu=1.5,model=1,daily=RES2_5,status=variable
new load.3000080522M1 bus1=RML201863739.1.2.0,Phases=2,kv=0.22,kW=0.6871,pf=0.92,Vminpu=0.92,Vmaxpu=1.5,model=1,daily=RES2_2,status=variable
new load.3000080434M1 bus1=RML201863571.1.2.3.0,Phases=3,kv=0.22,kW=1.24928,pf=0.92,Vminpu=0.92,Vmaxpu=1.5,model=1,daily=IND1_4,status=variable
new load.3000080435M1 bus1=RML201863592.3.0,Phases=1,kv=0.127,kW=0.5992,pf=0.92,Vminpu=0.92,Vmaxpu=1.5,model=1,daily=RES1_1,status=variable
new load.3000080436M1 bus1=RML201863585.1.2.0,Phases=2,kv=0.22,kW=0.2785,pf=0.92,Vminpu=0.92,Vmaxpu=1.5,model=1,daily=RES2_28,status=variable
new load.3000080437M1 bus1=RML201863599.1.2.0,Phases=2,kv=0.22,kW=0.22518,pf=0.92,Vminpu=0.92,Vmaxpu=1.5,model=1,daily=RES2_6,status=variable
new load.3000080440M1 bus1=RML201863564.1.0,Phases=1,kv=0.127,kW=0.003,pf=0.92,Vminpu=0.92,Vmaxpu=1.5,model=1,daily=RES1_18,status=variable
new load.3000080442M1 bus1=RML201863550.1.3.0,Phases=2,kv=0.22,kW=3.07568,pf=0.92,Vminpu=0.92,Vmaxpu=1.5,model=1,daily=RES3_1,status=variable
new load.3000080445M1 bus1=RML201863606.3.0,Phases=1,kv=0.127,kW=0.7059,pf=0.92,Vminpu=0.92,Vmaxpu=1.5,model=1,daily=RES2_7,status=variable
new load.3000080446M1 bus1=RML201863620.2.0,Phases=1,kv=0.127,kW=0.91456,pf=0.92,Vminpu=0.92,Vmaxpu=1.5,model=1,daily=RES1_1,status=variable
new load.3000080447M1 bus1=RML201863627.3.0,Phases=1,kv=0.127,kW=1.60698,pf=0.92,Vminpu=0.92,Vmaxpu=1.5,model=1,daily=RES3_19,status=variable
new load.3000080448M1 bus1=RML201863613.1.2.3.0,Phases=3,kv=0.22,kW=0.14324,pf=0.92,Vminpu=0.92,Vmaxpu=1.5,model=1,daily=COM1_7,status=variable
new load.3000080449M1 bus1=RML201863669.1.2.0,Phases=2,kv=0.22,kW=0.69886,pf=0.92,Vminpu=0.92,Vmaxpu=1.5,model=1,daily=RES2_15,status=variable
new load.3000080451M1 bus1=RML201863641.3.0,Phases=1,kv=0.127,kW=0.62336,pf=0.92,Vminpu=0.92,Vmaxpu=1.5,model=1,daily=RES2_1,status=variable
new load.3000080493M1 bus1=RML201863648.1.0,Phases=1,kv=0.127,kW=1.20704,pf=0.92,Vminpu=0.92,Vmaxpu=1.5,model=1,daily=RES1_16,status=variable
new load.3000965190M1 bus1=RML210299823.1.2.0,Phases=2,kv=0.22,kW=0.72228,pf=0.92,Vminpu=0.92,Vmaxpu=1.5,model=1,daily=RES2_5,status=variable
new load.3000079981M1 bus1=RML201868086.1.2.3.0,Phases=3,kv=0.22,kW=0.18858,pf=0.92,Vminpu=0.92,Vmaxpu=1.5,model=1,daily=COM1_8,status=variable
new load.3000079917M1 bus1=RML201868142.1.2.3.0,Phases=3,kv=0.22,kW=7.11676,pf=0.92,Vminpu=0.92,Vmaxpu=1.5,model=1,daily=RES1_1,status=variable
new load.3000079918M1 bus1=RML201868149.1.2.3.0,Phases=3,kv=0.22,kW=0.61484,pf=0.92,Vminpu=0.92,Vmaxpu=1.5,model=1,daily=RES2_26,status=variable
new load.3000079919M1 bus1=RML201868149.1.2.3.0,Phases=3,kv=0.22,kW=0.66992,pf=0.92,Vminpu=0.92,Vmaxpu=1.5,model=1,daily=RES1_9,status=variable
new load.3000079920M1 bus1=RML201868149.1.2.3.0,Phases=3,kv=0.22,kW=0.88868,pf=0.92,Vminpu=0.92,Vmaxpu=1.5,model=1,daily=COM1_12,status=variable
new load.3000079921M1 bus1=RML201868128.1.2.3.0,Phases=3,kv=0.22,kW=0.06326,pf=0.92,Vminpu=0.92,Vmaxpu=1.5,model=1,daily=RES1_21,status=variable
new load.3000079922M1 bus1=RML201868135.1.2.3.0,Phases=3,kv=0.22,kW=0.946,pf=0.92,Vminpu=0.92,Vmaxpu=1.5,model=1,daily=RES3_20,status=variable
new load.3000079923M1 bus1=RML201868121.1.2.3.0,Phases=3,kv=0.22,kW=3.0395,pf=0.92,Vminpu=0.92,Vmaxpu=1.5,model=1,daily=COM2_14,status=variable
new load.3000079924M1 bus1=RML201868114.1.2.3.0,Phases=3,kv=0.22,kW=2.28702,pf=0.92,Vminpu=0.92,Vmaxpu=1.5,model=1,daily=COM1_13,status=variable
new load.3000079926M1 bus1=RML201868107.1.2.3.0,Phases=3,kv=0.22,kW=2.35134,pf=0.92,Vminpu=0.92,Vmaxpu=1.5,model=1,daily=RES5_9,status=variable
new load.3000079927M1 bus1=RML201868100.1.2.3.0,Phases=3,kv=0.22,kW=4.47664,pf=0.92,Vminpu=0.92,Vmaxpu=1.5,model=1,daily=COM2_15,status=variable
new load.3000079950M1 bus1=RML201868226.1.2.0,Phases=2,kv=0.22,kW=2.3602,pf=0.92,Vminpu=0.92,Vmaxpu=1.5,model=1,daily=RES1_7,status=variable
new load.3000079951M1 bus1=RML201868198.1.2.0,Phases=2,kv=0.22,kW=0.4882,pf=0.92,Vminpu=0.92,Vmaxpu=1.5,model=1,daily=COM1_7,status=variable
new load.3000079952M1 bus1=RML201868219.1.2.3.0,Phases=3,kv=0.22,kW=6.33174,pf=0.92,Vminpu=0.92,Vmaxpu=1.5,model=1,daily=COM2_18,status=variable
new load.3000079955M1 bus1=RML201868233.1.2.3.0,Phases=3,kv=0.22,kW=20.35624,pf=0.92,Vminpu=0.92,Vmaxpu=1.5,model=1,daily=COM4_18,status=variable
new load.3000079958M1 bus1=RML201868002.1.2.3.0,Phases=3,kv=0.22,kW=0.1958,pf=0.92,Vminpu=0.92,Vmaxpu=1.5,model=1,daily=COM1_12,status=variable
new load.3000079959M1 bus1=RML201868009.1.2.3.0,Phases=3,kv=0.22,kW=0.23006,pf=0.92,Vminpu=0.92,Vmaxpu=1.5,model=1,daily=COM1_5,status=variable
new load.3000079960M1 bus1=RML201868002.1.2.3.0,Phases=3,kv=0.22,kW=0.76316,pf=0.92,Vminpu=0.92,Vmaxpu=1.5,model=1,daily=COM1_12,status=variable
new load.3000079961M1 bus1=RML201868002.1.2.3.0,Phases=3,kv=0.22,kW=2.13062,pf=0.92,Vminpu=0.92,Vmaxpu=1.5,model=1,daily=COM2_5,status=variable
new load.3000079962M1 bus1=RML201868002.1.2.3.0,Phases=3,kv=0.22,kW=1.00174,pf=0.92,Vminpu=0.92,Vmaxpu=1.5,model=1,daily=COM1_24,status=variable
new load.3000079963M1 bus1=RML201868002.1.2.3.0,Phases=3,kv=0.22,kW=0.63332,pf=0.92,Vminpu=0.92,Vmaxpu=1.5,model=1,daily=COM1_21,status=variable
new load.3000079964M1 bus1=RML201868002.1.2.3.0,Phases=3,kv=0.22,kW=1.26308,pf=0.92,Vminpu=0.92,Vmaxpu=1.5,model=1,daily=COM1_10,status=variable
new load.3000079965M1 bus1=RML201868002.1.2.3.0,Phases=3,kv=0.22,kW=3.43756,pf=0.92,Vminpu=0.92,Vmaxpu=1.5,model=1,daily=COM2_11,status=variable
new load.3000079966M1 bus1=RML201868002.1.2.3.0,Phases=3,kv=0.22,kW=0.3205,pf=0.92,Vminpu=0.92,Vmaxpu=1.5,model=1,daily=COM1_20,status=variable
new load.3000079967M1 bus1=RML201868002.1.2.3.0,Phases=3,kv=0.22,kW=0.1612,pf=0.92,Vminpu=0.92,Vmaxpu=1.5,model=1,daily=COM1_25,status=variable
new load.3000079970M1 bus1=RML201868002.1.2.3.0,Phases=3,kv=0.22,kW=6.16992,pf=0.92,Vminpu=0.92,Vmaxpu=1.5,model=1,daily=COM2_23,status=variable
new load.3000079972M1 bus1=RML201868002.1.2.3.0,Phases=3,kv=0.22,kW=0.51086,pf=0.92,Vminpu=0.92,Vmaxpu=1.5,model=1,daily=COM1_23,status=variable
new load.3000079973M1 bus1=RML201868002.1.2.3.0,Phases=3,kv=0.22,kW=2.76914,pf=0.92,Vminpu=0.92,Vmaxpu=1.5,model=1,daily=COM2_29,status=variable
new load.3000079751M1 bus1=RML201868275.1.2.3.0,Phases=3,kv=0.22,kW=0.8836,pf=0.92,Vminpu=0.92,Vmaxpu=1.5,model=1,daily=COM1_5,status=variable
new load.3000079754M1 bus1=RML201868023.1.2.0,Phases=2,kv=0.22,kW=1.85558,pf=0.92,Vminpu=0.92,Vmaxpu=1.5,model=1,daily=RES3_7,status=variable
new load.3000079755M1 bus1=RML201868016.1.0,Phases=1,kv=0.127,kW=1.17838,pf=0.92,Vminpu=0.92,Vmaxpu=1.5,model=1,daily=COM1_19,status=variable
new load.3000079793M1 bus1=RML201867995.1.2.3.0,Phases=3,kv=0.22,kW=10.05828,pf=0.92,Vminpu=0.92,Vmaxpu=1.5,model=1,daily=COM3_14,status=variable
new load.3000079983M1 bus1=RML201868254.2.3.0,Phases=2,kv=0.22,kW=2.42162,pf=0.92,Vminpu=0.92,Vmaxpu=1.5,model=1,daily=RES4_11,status=variable
new load.3000079985M1 bus1=RML201868268.1.2.3.0,Phases=3,kv=0.22,kW=0.5699,pf=0.92,Vminpu=0.92,Vmaxpu=1.5,model=1,daily=COM1_5,status=variable
new load.3000080148M1 bus1=RML201868716.1.0,Phases=1,kv=0.127,kW=0.74472,pf=0.92,Vminpu=0.92,Vmaxpu=1.5,model=1,daily=RES1_14,status=variable
new load.3000080149M1 bus1=RML201868821.1.0,Phases=1,kv=0.127,kW=0.03086,pf=0.92,Vminpu=0.92,Vmaxpu=1.5,model=1,daily=RES2_1,status=variable
new load.3000080150M1 bus1=RML201868807.1.3.0,Phases=2,kv=0.22,kW=0.96246,pf=0.92,Vminpu=0.92,Vmaxpu=1.5,model=1,daily=RES2_24,status=variable
new load.3000080151M1 bus1=RML201868793.2.0,Phases=1,kv=0.127,kW=0.7659,pf=0.92,Vminpu=0.92,Vmaxpu=1.5,model=1,daily=RES1_2,status=variable
new load.3000080152M1 bus1=RML210146342.1.2.0,Phases=2,kv=0.22,kW=1.18812,pf=0.92,Vminpu=0.92,Vmaxpu=1.5,model=1,daily=RES2_2,status=variable
new load.3000080153M1 bus1=RML201868772.1.0,Phases=1,kv=0.127,kW=0.98134,pf=0.92,Vminpu=0.92,Vmaxpu=1.5,model=1,daily=RES2_1,status=variable
new load.3000080154M1 bus1=RML201868765.1.2.0,Phases=2,kv=0.22,kW=1.48016,pf=0.92,Vminpu=0.92,Vmaxpu=1.5,model=1,daily=RES2_4,status=variable
new load.3000080155M1 bus1=RML201868758.2.3.0,Phases=2,kv=0.22,kW=0.2678,pf=0.92,Vminpu=0.92,Vmaxpu=1.5,model=1,daily=RES2_23,status=variable
new load.3000080156M1 bus1=RML201868786.1.2.0,Phases=2,kv=0.22,kW=0.97952,pf=0.92,Vminpu=0.92,Vmaxpu=1.5,model=1,daily=RES2_12,status=variable
new load.3000080157M1 bus1=RML201868800.3.0,Phases=1,kv=0.127,kW=0.92546,pf=0.92,Vminpu=0.92,Vmaxpu=1.5,model=1,daily=RES2_23,status=variable
new load.3000080160M1 bus1=RML201868709.3.0,Phases=1,kv=0.127,kW=1.1094,pf=0.92,Vminpu=0.92,Vmaxpu=1.5,model=1,daily=RES2_2,status=variable
new load.3000254239M1 bus1=RML201868737.3.0,Phases=1,kv=0.127,kW=1.71346,pf=0.92,Vminpu=0.92,Vmaxpu=1.5,model=1,daily=RES2_11,status=variable
new load.3000254243M1 bus1=RML201868870.3.0,Phases=1,kv=0.127,kW=0.98118,pf=0.92,Vminpu=0.92,Vmaxpu=1.5,model=1,daily=RES1_4,status=variable
new load.3000254244M1 bus1=RML201868863.2.0,Phases=1,kv=0.127,kW=0.7372,pf=0.92,Vminpu=0.92,Vmaxpu=1.5,model=1,daily=RES2_2,status=variable
new load.3000254245M1 bus1=RML201868856.2.0,Phases=1,kv=0.127,kW=1.21676,pf=0.92,Vminpu=0.92,Vmaxpu=1.5,model=1,daily=RES2_2,status=variable
new load.3000254246M1 bus1=RML201868835.2.0,Phases=1,kv=0.127,kW=1.02534,pf=0.92,Vminpu=0.92,Vmaxpu=1.5,model=1,daily=RES1_14,status=variable
new load.3000254247M1 bus1=RML201868891.1.3.0,Phases=2,kv=0.22,kW=0.03012,pf=0.92,Vminpu=0.92,Vmaxpu=1.5,model=1,daily=COM1_12,status=variable
new load.3000254248M1 bus1=RML201868891.1.3.0,Phases=2,kv=0.22,kW=0.42124,pf=0.92,Vminpu=0.92,Vmaxpu=1.5,model=1,daily=RES1_17,status=variable
new load.3000254100M1 bus1=RML201868982.1.2.0,Phases=2,kv=0.22,kW=3.28424,pf=0.92,Vminpu=0.92,Vmaxpu=1.5,model=1,daily=RES1_4,status=variable
new load.3000254101M1 bus1=RML201868968.3.0,Phases=1,kv=0.127,kW=1.84988,pf=0.92,Vminpu=0.92,Vmaxpu=1.5,model=1,daily=RES2_14,status=variable
new load.3000254102M1 bus1=RML201868954.2.0,Phases=1,kv=0.127,kW=0.11046,pf=0.92,Vminpu=0.92,Vmaxpu=1.5,model=1,daily=RES1_11,status=variable
new load.3000254229M1 bus1=RML201868898.1.0,Phases=1,kv=0.127,kW=0.52594,pf=0.92,Vminpu=0.92,Vmaxpu=1.5,model=1,daily=RES1_8,status=variable
new load.3000254230M1 bus1=RML201868842.1.0,Phases=1,kv=0.127,kW=0.44406,pf=0.92,Vminpu=0.92,Vmaxpu=1.5,model=1,daily=RES2_26,status=variable
new load.3000254231M1 bus1=RML201868849.3.0,Phases=1,kv=0.127,kW=0.24114,pf=0.92,Vminpu=0.92,Vmaxpu=1.5,model=1,daily=RES2_27,status=variable
new load.3000254232M1 bus1=RML201868744.1.2.0,Phases=2,kv=0.22,kW=1.65568,pf=0.92,Vminpu=0.92,Vmaxpu=1.5,model=1,daily=RES2_20,status=variable
new load.3000254233M1 bus1=RML201868730.1.2.0,Phases=2,kv=0.22,kW=1.23908,pf=0.92,Vminpu=0.92,Vmaxpu=1.5,model=1,daily=RES2_7,status=variable
new load.3000254104M1 bus1=RML201869045.2.3.0,Phases=2,kv=0.22,kW=1.32302,pf=0.92,Vminpu=0.92,Vmaxpu=1.5,model=1,daily=RES2_19,status=variable
new load.3000254105M1 bus1=RML201869108.3.0,Phases=1,kv=0.127,kW=1.3367,pf=0.92,Vminpu=0.92,Vmaxpu=1.5,model=1,daily=RES2_7,status=variable
new load.3000254107M1 bus1=RML201869129.3.0,Phases=1,kv=0.127,kW=0.26876,pf=0.92,Vminpu=0.92,Vmaxpu=1.5,model=1,daily=RES2_5,status=variable
new load.3000254117M1 bus1=RML201869031.1.2.3.0,Phases=3,kv=0.22,kW=9.87318,pf=0.92,Vminpu=0.92,Vmaxpu=1.5,model=1,daily=RES6_7,status=variable
new load.3000254118M1 bus1=RML201869038.2.3.0,Phases=2,kv=0.22,kW=0.94454,pf=0.92,Vminpu=0.92,Vmaxpu=1.5,model=1,daily=RES2_6,status=variable
new load.3000254119M1 bus1=RML201869052.1.0,Phases=1,kv=0.127,kW=1.14408,pf=0.92,Vminpu=0.92,Vmaxpu=1.5,model=1,daily=RES1_16,status=variable
new load.3000254121M1 bus1=RML201868961.3.0,Phases=1,kv=0.127,kW=0.61358,pf=0.92,Vminpu=0.92,Vmaxpu=1.5,model=1,daily=RES2_27,status=variable
new load.3000254122M1 bus1=RML201868975.1.0,Phases=1,kv=0.127,kW=0.69716,pf=0.92,Vminpu=0.92,Vmaxpu=1.5,model=1,daily=RES1_2,status=variable
new load.3000254123M1 bus1=RML201868975.1.0,Phases=1,kv=0.127,kW=0.34932,pf=0.92,Vminpu=0.92,Vmaxpu=1.5,model=1,daily=RES1_17,status=variable
new load.3000254124M1 bus1=RML201868933.1.2.3.0,Phases=3,kv=0.22,kW=1.03688,pf=0.92,Vminpu=0.92,Vmaxpu=1.5,model=1,daily=RES2_1,status=variable
new load.3000254125M1 bus1=RML201868926.2.0,Phases=1,kv=0.127,kW=1.41368,pf=0.92,Vminpu=0.92,Vmaxpu=1.5,model=1,daily=RES2_6,status=variable
new load.3000254126M1 bus1=RML201868919.1.2.0,Phases=2,kv=0.22,kW=0.8561,pf=0.92,Vminpu=0.92,Vmaxpu=1.5,model=1,daily=RES2_7,status=variable
new load.3000254128M1 bus1=RML201869003.1.0,Phases=1,kv=0.127,kW=0.5143,pf=0.92,Vminpu=0.92,Vmaxpu=1.5,model=1,daily=RES1_16,status=variable
new load.3000254130M1 bus1=RML201869094.1.2.3.0,Phases=3,kv=0.22,kW=0.93416,pf=0.92,Vminpu=0.92,Vmaxpu=1.5,model=1,daily=RES1_16,status=variable
new load.3000254132M1 bus1=RML201869087.1.0,Phases=1,kv=0.127,kW=1.0196,pf=0.92,Vminpu=0.92,Vmaxpu=1.5,model=1,daily=RES2_6,status=variable
new load.3000254133M1 bus1=RML201869087.1.0,Phases=1,kv=0.127,kW=1.33748,pf=0.92,Vminpu=0.92,Vmaxpu=1.5,model=1,daily=RES1_26,status=variable
new load.3000254137M1 bus1=RML201869073.1.0,Phases=1,kv=0.127,kW=0.63232,pf=0.92,Vminpu=0.92,Vmaxpu=1.5,model=1,daily=RES1_3,status=variable
new load.3000254139M1 bus1=RML201869101.1.3.0,Phases=2,kv=0.22,kW=1.47262,pf=0.92,Vminpu=0.92,Vmaxpu=1.5,model=1,daily=RES1_8,status=variable
new load.3000254140M1 bus1=RML201869101.1.3.0,Phases=2,kv=0.22,kW=1.23988,pf=0.92,Vminpu=0.92,Vmaxpu=1.5,model=1,daily=RES2_4,status=variable
new load.3000254141M1 bus1=RML201869010.2.3.0,Phases=2,kv=0.22,kW=1.90308,pf=0.92,Vminpu=0.92,Vmaxpu=1.5,model=1,daily=RES2_4,status=variable
new load.3000254142M1 bus1=RML201868996.2.0,Phases=1,kv=0.127,kW=0.60176,pf=0.92,Vminpu=0.92,Vmaxpu=1.5,model=1,daily=RES2_17,status=variable
new load.3000254143M1 bus1=RML201868989.1.0,Phases=1,kv=0.127,kW=1.21656,pf=0.92,Vminpu=0.92,Vmaxpu=1.5,model=1,daily=RES2_7,status=variable
new load.3000254146M1 bus1=RML201868940.1.0,Phases=1,kv=0.127,kW=0.28284,pf=0.92,Vminpu=0.92,Vmaxpu=1.5,model=1,daily=RES1_23,status=variable
new load.3000254154M1 bus1=RML201870235.3.0,Phases=1,kv=0.127,kW=0.9498,pf=0.92,Vminpu=0.92,Vmaxpu=1.5,model=1,daily=RES1_14,status=variable
new load.3000254155M1 bus1=RML201870221.1.2.0,Phases=2,kv=0.22,kW=0.31918,pf=0.92,Vminpu=0.92,Vmaxpu=1.5,model=1,daily=RES1_20,status=variable
new load.3000254158M1 bus1=RML201870319.3.0,Phases=1,kv=0.127,kW=1.62566,pf=0.92,Vminpu=0.92,Vmaxpu=1.5,model=1,daily=RES2_14,status=variable
new load.3000254159M1 bus1=RML201870298.3.0,Phases=1,kv=0.127,kW=0.85176,pf=0.92,Vminpu=0.92,Vmaxpu=1.5,model=1,daily=RES2_12,status=variable
new load.3000254160M1 bus1=RML201870298.3.0,Phases=1,kv=0.127,kW=0.36394,pf=0.92,Vminpu=0.92,Vmaxpu=1.5,model=1,daily=RES2_5,status=variable
new load.3000254161M1 bus1=RML201870291.2.0,Phases=1,kv=0.127,kW=1.03296,pf=0.92,Vminpu=0.92,Vmaxpu=1.5,model=1,daily=RES2_13,status=variable
new load.3000254162M1 bus1=RML201870284.1.0,Phases=1,kv=0.127,kW=1.43244,pf=0.92,Vminpu=0.92,Vmaxpu=1.5,model=1,daily=RES2_6,status=variable
new load.3000254163M1 bus1=RML201870214.3.0,Phases=1,kv=0.127,kW=1.14146,pf=0.92,Vminpu=0.92,Vmaxpu=1.5,model=1,daily=RES2_7,status=variable
new load.3000254164M1 bus1=RML201870158.1.0,Phases=1,kv=0.127,kW=0.67556,pf=0.92,Vminpu=0.92,Vmaxpu=1.5,model=1,daily=RES2_6,status=variable
new load.3000254165M1 bus1=RML201870165.2.0,Phases=1,kv=0.127,kW=0.54988,pf=0.92,Vminpu=0.92,Vmaxpu=1.5,model=1,daily=RES1_2,status=variable
new load.3000254166M1 bus1=RML201870228.3.0,Phases=1,kv=0.127,kW=0.53544,pf=0.92,Vminpu=0.92,Vmaxpu=1.5,model=1,daily=RES2_22,status=variable
new load.3000254168M1 bus1=RML201870151.2.0,Phases=1,kv=0.127,kW=0.5442,pf=0.92,Vminpu=0.92,Vmaxpu=1.5,model=1,daily=RES1_24,status=variable
new load.3000254169M1 bus1=RML201870144.2.3.0,Phases=2,kv=0.22,kW=0.53024,pf=0.92,Vminpu=0.92,Vmaxpu=1.5,model=1,daily=RES1_2,status=variable
new load.3000254170M1 bus1=RML201870130.3.0,Phases=1,kv=0.127,kW=0.8916,pf=0.92,Vminpu=0.92,Vmaxpu=1.5,model=1,daily=RES2_19,status=variable
new load.3000254171M1 bus1=RML201870123.1.3.0,Phases=2,kv=0.22,kW=1.31054,pf=0.92,Vminpu=0.92,Vmaxpu=1.5,model=1,daily=RES4_19,status=variable
new load.3000254172M1 bus1=RML201869997.1.2.3.0,Phases=3,kv=0.22,kW=1.03676,pf=0.92,Vminpu=0.92,Vmaxpu=1.5,model=1,daily=RES4_19,status=variable
new load.3000254173M1 bus1=RML201870004.1.2.3.0,Phases=3,kv=0.22,kW=0.44812,pf=0.92,Vminpu=0.92,Vmaxpu=1.5,model=1,daily=IND1_10,status=variable
new load.3000254174M1 bus1=RML201870032.3.0,Phases=1,kv=0.127,kW=0.60442,pf=0.92,Vminpu=0.92,Vmaxpu=1.5,model=1,daily=RES1_14,status=variable
new load.3000254175M1 bus1=RML201870046.2.0,Phases=1,kv=0.127,kW=0.22652,pf=0.92,Vminpu=0.92,Vmaxpu=1.5,model=1,daily=RES2_10,status=variable
new load.3000254176M1 bus1=RML201870039.1.0,Phases=1,kv=0.127,kW=0.2099,pf=0.92,Vminpu=0.92,Vmaxpu=1.5,model=1,daily=RES1_18,status=variable
new load.3000254177M1 bus1=RML201870081.1.2.3.0,Phases=3,kv=0.22,kW=0.54988,pf=0.92,Vminpu=0.92,Vmaxpu=1.5,model=1,daily=RES1_2,status=variable
new load.3000254178M1 bus1=RML201870067.1.2.0,Phases=2,kv=0.22,kW=1.08374,pf=0.92,Vminpu=0.92,Vmaxpu=1.5,model=1,daily=RES1_5,status=variable
new load.3000254179M1 bus1=RML201870074.1.3.0,Phases=2,kv=0.22,kW=2.0791,pf=0.92,Vminpu=0.92,Vmaxpu=1.5,model=1,daily=RES1_24,status=variable
new load.3000254180M1 bus1=RML201870186.2.0,Phases=1,kv=0.127,kW=1.00868,pf=0.92,Vminpu=0.92,Vmaxpu=1.5,model=1,daily=RES1_6,status=variable
new load.3000254181M1 bus1=RML201870277.2.3.0,Phases=2,kv=0.22,kW=0.98206,pf=0.92,Vminpu=0.92,Vmaxpu=1.5,model=1,daily=RES2_6,status=variable
new load.3000254182M1 bus1=RML201870270.1.0,Phases=1,kv=0.127,kW=0.37068,pf=0.92,Vminpu=0.92,Vmaxpu=1.5,model=1,daily=RES2_17,status=variable
new load.3000254183M1 bus1=RML201870263.3.0,Phases=1,kv=0.127,kW=0.57496,pf=0.92,Vminpu=0.92,Vmaxpu=1.5,model=1,daily=RES2_23,status=variable
new load.3000254185M1 bus1=RML201870326.1.2.3.0,Phases=3,kv=0.22,kW=0.0703,pf=0.92,Vminpu=0.92,Vmaxpu=1.5,model=1,daily=RES1_11,status=variable
new load.3000254186M1 bus1=RML201870312.3.0,Phases=1,kv=0.127,kW=0.57398,pf=0.92,Vminpu=0.92,Vmaxpu=1.5,model=1,daily=RES2_1,status=variable
new load.3000254191M1 bus1=RML201870088.2.0,Phases=1,kv=0.127,kW=1.22962,pf=0.92,Vminpu=0.92,Vmaxpu=1.5,model=1,daily=RES2_15,status=variable
new load.3000254192M1 bus1=RML201870095.2.0,Phases=1,kv=0.127,kW=0.89468,pf=0.92,Vminpu=0.92,Vmaxpu=1.5,model=1,daily=RES2_2,status=variable
new load.3000254195M1 bus1=RML201869976.1.0,Phases=1,kv=0.127,kW=0.56538,pf=0.92,Vminpu=0.92,Vmaxpu=1.5,model=1,daily=RES1_8,status=variable
new load.3000254198M1 bus1=RML201869962.3.0,Phases=1,kv=0.127,kW=0.71428,pf=0.92,Vminpu=0.92,Vmaxpu=1.5,model=1,daily=RES3_15,status=variable
new load.3000254199M1 bus1=RML201869962.3.0,Phases=1,kv=0.127,kW=0.80628,pf=0.92,Vminpu=0.92,Vmaxpu=1.5,model=1,daily=RES2_5,status=variable
new load.3000254200M1 bus1=RML201869955.2.0,Phases=1,kv=0.127,kW=1.5881,pf=0.92,Vminpu=0.92,Vmaxpu=1.5,model=1,daily=RES2_20,status=variable
new load.3000254201M1 bus1=RML201869948.1.3.0,Phases=2,kv=0.22,kW=0.21214,pf=0.92,Vminpu=0.92,Vmaxpu=1.5,model=1,daily=RES1_23,status=variable
new load.3000254202M1 bus1=RML201869934.2.0,Phases=1,kv=0.127,kW=0.27248,pf=0.92,Vminpu=0.92,Vmaxpu=1.5,model=1,daily=RES3_20,status=variable
new load.3000254203M1 bus1=RML201869934.2.0,Phases=1,kv=0.127,kW=1.22226,pf=0.92,Vminpu=0.92,Vmaxpu=1.5,model=1,daily=RES2_9,status=variable
new load.3000254204M1 bus1=RML201870102.2.0,Phases=1,kv=0.127,kW=1.23594,pf=0.92,Vminpu=0.92,Vmaxpu=1.5,model=1,daily=RES1_8,status=variable
new load.3000254205M1 bus1=RML201870102.2.0,Phases=1,kv=0.127,kW=0.13746,pf=0.92,Vminpu=0.92,Vmaxpu=1.5,model=1,daily=RES1_2,status=variable
new load.3000254206M1 bus1=RML201870116.2.0,Phases=1,kv=0.127,kW=1.31146,pf=0.92,Vminpu=0.92,Vmaxpu=1.5,model=1,daily=RES3_7,status=variable
new load.3000254208M1 bus1=RML201870053.2.0,Phases=1,kv=0.127,kW=1.56164,pf=0.92,Vminpu=0.92,Vmaxpu=1.5,model=1,daily=RES2_11,status=variable
new load.3000254209M1 bus1=RML201870011.1.0,Phases=1,kv=0.127,kW=0.25486,pf=0.92,Vminpu=0.92,Vmaxpu=1.5,model=1,daily=RES1_18,status=variable
new load.3000254210M1 bus1=RML201869920.2.0,Phases=1,kv=0.127,kW=1.03932,pf=0.92,Vminpu=0.92,Vmaxpu=1.5,model=1,daily=RES2_10,status=variable
new load.3000254211M1 bus1=RML201869913.1.3.0,Phases=2,kv=0.22,kW=0.96064,pf=0.92,Vminpu=0.92,Vmaxpu=1.5,model=1,daily=RES2_19,status=variable
new load.3000254214M1 bus1=RML201869878.2.3.0,Phases=2,kv=0.22,kW=0.74156,pf=0.92,Vminpu=0.92,Vmaxpu=1.5,model=1,daily=RES1_25,status=variable
new load.3000254221M1 bus1=RML201869885.2.0,Phases=1,kv=0.127,kW=0.39048,pf=0.92,Vminpu=0.92,Vmaxpu=1.5,model=1,daily=RES1_7,status=variable
new load.3000254222M1 bus1=RML201869892.2.3.0,Phases=2,kv=0.22,kW=0.22172,pf=0.92,Vminpu=0.92,Vmaxpu=1.5,model=1,daily=RES2_28,status=variable
new load.3000254225M1 bus1=RML201869906.1.2.0,Phases=2,kv=0.22,kW=2.12988,pf=0.92,Vminpu=0.92,Vmaxpu=1.5,model=1,daily=RES2_3,status=variable
new load.3000254226M1 bus1=RML201869927.2.3.0,Phases=2,kv=0.22,kW=0.58502,pf=0.92,Vminpu=0.92,Vmaxpu=1.5,model=1,daily=RES1_10,status=variable
new load.3000254227M1 bus1=RML201870018.2.0,Phases=1,kv=0.127,kW=1.51862,pf=0.92,Vminpu=0.92,Vmaxpu=1.5,model=1,daily=RES2_4,status=variable
new load.3000254228M1 bus1=RML201869983.2.0,Phases=1,kv=0.127,kW=0.7879,pf=0.92,Vminpu=0.92,Vmaxpu=1.5,model=1,daily=RES1_14,status=variable
new load.3000253745M1 bus1=RML201870410.1.2.3.0,Phases=3,kv=0.22,kW=5.33606,pf=0.92,Vminpu=0.92,Vmaxpu=1.5,model=1,daily=COM2_5,status=variable
new load.3000253746M1 bus1=RML201870417.1.3.0,Phases=2,kv=0.22,kW=0.49408,pf=0.92,Vminpu=0.92,Vmaxpu=1.5,model=1,daily=COM1_5,status=variable
new load.3000253747M1 bus1=RML201870431.2.3.0,Phases=2,kv=0.22,kW=1.3791,pf=0.92,Vminpu=0.92,Vmaxpu=1.5,model=1,daily=RES2_10,status=variable
new load.3000253748M1 bus1=RML201870403.2.0,Phases=1,kv=0.127,kW=0.60404,pf=0.92,Vminpu=0.92,Vmaxpu=1.5,model=1,daily=RES2_27,status=variable
new load.3000080669M1 bus1=RML201870522.1.2.3.0,Phases=3,kv=0.22,kW=2.09228,pf=0.92,Vminpu=0.92,Vmaxpu=1.5,model=1,daily=RES2_1,status=variable
new load.3000080670M1 bus1=RML201870522.1.2.3.0,Phases=3,kv=0.22,kW=0.16712,pf=0.92,Vminpu=0.92,Vmaxpu=1.5,model=1,daily=COM1_4,status=variable
new load.3000080671M1 bus1=RML201870529.1.2.3.0,Phases=3,kv=0.22,kW=1.6864,pf=0.92,Vminpu=0.92,Vmaxpu=1.5,model=1,daily=COM2_2,status=variable
new load.3000253683M1 bus1=RML201870459.1.3.0,Phases=2,kv=0.22,kW=0.1889,pf=0.92,Vminpu=0.92,Vmaxpu=1.5,model=1,daily=RES1_18,status=variable
new load.3000253684M1 bus1=RML201870424.2.3.0,Phases=2,kv=0.22,kW=0.73812,pf=0.92,Vminpu=0.92,Vmaxpu=1.5,model=1,daily=RES2_6,status=variable
new load.3000253754M1 bus1=RML201870347.1.2.0,Phases=2,kv=0.22,kW=0.91344,pf=0.92,Vminpu=0.92,Vmaxpu=1.5,model=1,daily=RES2_1,status=variable
new load.3000253755M1 bus1=RML201870347.1.2.0,Phases=2,kv=0.22,kW=0.0644,pf=0.92,Vminpu=0.92,Vmaxpu=1.5,model=1,daily=RES2_16,status=variable
new load.3000253756M1 bus1=RML201870382.1.2.0,Phases=2,kv=0.22,kW=0.7303,pf=0.92,Vminpu=0.92,Vmaxpu=1.5,model=1,daily=RES2_24,status=variable
new load.3000253757M1 bus1=RML210316018.1.2.0,Phases=2,kv=0.22,kW=0.7036,pf=0.92,Vminpu=0.92,Vmaxpu=1.5,model=1,daily=RES2_1,status=variable
new load.3000253758M1 bus1=RML201870368.1.2.0,Phases=2,kv=0.22,kW=1.11096,pf=0.92,Vminpu=0.92,Vmaxpu=1.5,model=1,daily=RES3_11,status=variable
new load.3000253759M1 bus1=RML201870368.1.2.0,Phases=2,kv=0.22,kW=0.7895,pf=0.92,Vminpu=0.92,Vmaxpu=1.5,model=1,daily=RES2_17,status=variable
new load.3000253762M1 bus1=RML201870466.1.2.3.0,Phases=3,kv=0.22,kW=1.22648,pf=0.92,Vminpu=0.92,Vmaxpu=1.5,model=1,daily=RES1_4,status=variable
new load.3000253763M1 bus1=RML201870466.1.2.3.0,Phases=3,kv=0.22,kW=0.63232,pf=0.92,Vminpu=0.92,Vmaxpu=1.5,model=1,daily=RES1_3,status=variable
new load.3000253764M1 bus1=RML201870466.1.2.3.0,Phases=3,kv=0.22,kW=0.19286,pf=0.92,Vminpu=0.92,Vmaxpu=1.5,model=1,daily=RES1_23,status=variable
new load.3000253765M1 bus1=RML201870466.1.2.3.0,Phases=3,kv=0.22,kW=1.51376,pf=0.92,Vminpu=0.92,Vmaxpu=1.5,model=1,daily=RES2_6,status=variable
new load.3000253766M1 bus1=RML201870466.1.2.3.0,Phases=3,kv=0.22,kW=0.2628,pf=0.92,Vminpu=0.92,Vmaxpu=1.5,model=1,daily=RES1_1,status=variable
new load.3000253767M1 bus1=RML201870466.1.2.3.0,Phases=3,kv=0.22,kW=1.08316,pf=0.92,Vminpu=0.92,Vmaxpu=1.5,model=1,daily=RES2_17,status=variable
new load.3000253768M1 bus1=RML201870466.1.2.3.0,Phases=3,kv=0.22,kW=0.1919,pf=0.92,Vminpu=0.92,Vmaxpu=1.5,model=1,daily=RES1_18,status=variable
new load.3000253769M1 bus1=RML201870466.1.2.3.0,Phases=3,kv=0.22,kW=0.28254,pf=0.92,Vminpu=0.92,Vmaxpu=1.5,model=1,daily=RES1_17,status=variable
new load.3000253770M1 bus1=RML201870466.1.2.3.0,Phases=3,kv=0.22,kW=0.50916,pf=0.92,Vminpu=0.92,Vmaxpu=1.5,model=1,daily=RES2_22,status=variable
new load.3000253772M1 bus1=RML201870466.1.2.3.0,Phases=3,kv=0.22,kW=1.0324,pf=0.92,Vminpu=0.92,Vmaxpu=1.5,model=1,daily=RES1_6,status=variable
new load.3000253773M1 bus1=RML201870466.1.2.3.0,Phases=3,kv=0.22,kW=0.9721,pf=0.92,Vminpu=0.92,Vmaxpu=1.5,model=1,daily=RES1_2,status=variable
new load.3000253774M1 bus1=RML201870466.1.2.3.0,Phases=3,kv=0.22,kW=0.70286,pf=0.92,Vminpu=0.92,Vmaxpu=1.5,model=1,daily=RES2_17,status=variable
new load.3000253775M1 bus1=RML201870466.1.2.3.0,Phases=3,kv=0.22,kW=0.62212,pf=0.92,Vminpu=0.92,Vmaxpu=1.5,model=1,daily=RES2_13,status=variable
new load.3000253776M1 bus1=RML201870466.1.2.3.0,Phases=3,kv=0.22,kW=3.75822,pf=0.92,Vminpu=0.92,Vmaxpu=1.5,model=1,daily=RES5_3,status=variable
new load.3000253777M1 bus1=RML201870466.1.2.3.0,Phases=3,kv=0.22,kW=0.8881,pf=0.92,Vminpu=0.92,Vmaxpu=1.5,model=1,daily=RES2_26,status=variable
new load.3000253778M1 bus1=RML201870466.1.2.3.0,Phases=3,kv=0.22,kW=1.29052,pf=0.92,Vminpu=0.92,Vmaxpu=1.5,model=1,daily=RES2_11,status=variable
new load.3000253779M1 bus1=RML201870508.2.0,Phases=1,kv=0.127,kW=1.03872,pf=0.92,Vminpu=0.92,Vmaxpu=1.5,model=1,daily=RES1_8,status=variable