new line.TR12381142 bus1=BMT158509404.1.2.3,bus2=BMT956231B.1.2.3,Phases=3,Linecode=CABA06_3_3,Length=0.041110000,Units=km
new line.TR12381146 bus1=BMT956231B.1.2.3,bus2=BMT158509405.1.2.3,Phases=3,Linecode=CABA06_3_3,Length=0.038890000,Units=km
new line.TR12562404 bus1=BMT165087155.1.2.3,bus2=BMT165087157.1.2.3,Phases=3,Linecode=CABA06_3_3,Length=0.030260000,Units=km
new line.TR1426300 bus1=BMT944100B.1.2.3,bus2=BMT109916172.1.2.3,Phases=3,Linecode=CAB103_3_3,Length=0.018030000,Units=km
new line.TR1426314 bus1=BMT944107B.1.2.3,bus2=BMT109916179.1.2.3,Phases=3,Linecode=CAB103_3_3,Length=0.033940000,Units=km
new line.TR1426699 bus1=BMT944450B.1.2.3,bus2=BMT2377861.1.2.3,Phases=3,Linecode=CABA08_3_3,Length=0.037730000,Units=km
new line.TR1426720 bus1=BMT169978151.1.2.3,bus2=BMT944450B.1.2.3,Phases=3,Linecode=CABA08_3_3,Length=0.007210000,Units=km
new line.TR1426734 bus1=BMT944471B.1.2.3,bus2=BMT169978151.1.2.3,Phases=3,Linecode=CABA08_3_3,Length=0.026920000,Units=km
new line.TR1426762 bus1=BMT944478B.1.2.3,bus2=BMT944471B.1.2.3,Phases=3,Linecode=CABA08_3_3,Length=0.029150000,Units=km
new line.TR1426783 bus1=BMT944492B.1.2.3,bus2=BMT944478B.1.2.3,Phases=3,Linecode=CABA08_3_3,Length=0.032750000,Units=km
new line.TR1426804 bus1=BMT2056701B.1.2.3,bus2=BMT944492B.1.2.3,Phases=3,Linecode=CABA08_3_3,Length=0.015260000,Units=km
new line.TR1427105 bus1=BMT944814B.1.2.3,bus2=BMT944828B.1.2.3,Phases=3,Linecode=CAB103_3_3,Length=0.036790000,Units=km
new line.TR1427126 bus1=BMT944828B.1.2.3,bus2=BMT944842B.1.2.3,Phases=3,Linecode=CAB103_3_3,Length=0.024040000,Units=km
new line.TR1427133 bus1=BMT944835B.1.2.3,bus2=BMT128243446.1.2.3,Phases=3,Linecode=CAB103_3_3,Length=0.031140000,Units=km
new line.TR1427140 bus1=BMT944842B.1.2.3,bus2=BMT944856B.1.2.3,Phases=3,Linecode=CAB103_3_3,Length=0.012040000,Units=km
new line.TR1427147 bus1=BMT944856B.1.2.3,bus2=BMT128243439.1.2.3,Phases=3,Linecode=CAB103_3_3,Length=0.028280000,Units=km
new line.TR1427154 bus1=BMT944863B.1.2.3,bus2=BMT944835B.1.2.3,Phases=3,Linecode=CAB103_3_3,Length=0.040310000,Units=km
new line.TR1427175 bus1=BMT128243439.1.2.3,bus2=BMT944884B.1.2.3,Phases=3,Linecode=CAB103_3_3,Length=0.021260000,Units=km
new line.TR1427196 bus1=BMT944884B.1.2.3,bus2=BMT944863B.1.2.3,Phases=3,Linecode=CAB103_3_3,Length=0.033300000,Units=km
new line.TR1427252 bus1=BMT944968B.1.2.3,bus2=BMT949490B.1.2.3,Phases=3,Linecode=CAB103_3_3,Length=0.018030000,Units=km
new line.TR1427280 bus1=BMT944989B.1.2.3,bus2=BMT944968B.1.2.3,Phases=3,Linecode=CAB103_3_3,Length=0.031900000,Units=km
new line.TR1427301 bus1=BMT113436577.1.2.3,bus2=BMT944989B.1.2.3,Phases=3,Linecode=CAB103_3_3,Length=0.014420000,Units=km
new line.TR1427308 bus1=BMT945017B.1.2.3,bus2=BMT113436577.1.2.3,Phases=3,Linecode=CAB103_3_3,Length=0.015810000,Units=km
new line.TR1427322 bus1=BMT945038B.1.2.3,bus2=BMT945017B.1.2.3,Phases=3,Linecode=CAB103_3_3,Length=0.030230000,Units=km
new line.TR1427350 bus1=BMT113436570.1.2.3,bus2=BMT945038B.1.2.3,Phases=3,Linecode=CAB103_3_3,Length=0.016640000,Units=km
new line.TR1427371 bus1=BMT945073B.1.2.3,bus2=BMT113436570.1.2.3,Phases=3,Linecode=CAB103_3_3,Length=0.018870000,Units=km
new line.TR1427399 bus1=BMT113436563.1.2.3,bus2=BMT945073B.1.2.3,Phases=3,Linecode=CAB103_3_3,Length=0.028840000,Units=km
new line.TR1427441 bus1=BMT945171B.1.2.3,bus2=BMT103183201.1.2.3,Phases=3,Linecode=CAB104_3_3,Length=0.032650000,Units=km
new line.TR1427448 bus1=BMT945178B.1.2.3,bus2=BMT945171B.1.2.3,Phases=3,Linecode=CAB104_3_3,Length=0.034410000,Units=km
new line.TR1427469 bus1=BMT945185B.1.2.3,bus2=BMT945178B.1.2.3,Phases=3,Linecode=CAB104_3_3,Length=0.033970000,Units=km
new line.TR1428071 bus1=BMT945717B.1.2.3,bus2=BMT945738B.1.2.3,Phases=3,Linecode=CAB103_3_3,Length=0.025450000,Units=km
new line.TR1428099 bus1=BMT945724B.1.2.3,bus2=BMT945717B.1.2.3,Phases=3,Linecode=CAB103_3_3,Length=0.009220000,Units=km
new line.TR1428127 bus1=BMT945738B.1.2.3,bus2=BMT128243425.1.2.3,Phases=3,Linecode=CAB103_3_3,Length=0.026170000,Units=km
new line.TR1428148 bus1=BMT128243425.1.2.3,bus2=BMT945752B.1.2.3,Phases=3,Linecode=CAB103_3_3,Length=0.029000000,Units=km
new line.TR1428176 bus1=BMT945752B.1.2.3,bus2=BMT944814B.1.2.3,Phases=3,Linecode=CAB103_3_3,Length=0.031820000,Units=km
new line.TR1428239 bus1=BMT945794B.1.2.3,bus2=BMT945787B.1.2.3,Phases=3,Linecode=CAB103_3_3,Length=0.029700000,Units=km
new line.TR1428253 bus1=BMT945801B.1.2.3,bus2=BMT945794B.1.2.3,Phases=3,Linecode=CAB103_3_3,Length=0.033300000,Units=km
new line.TR1428260 bus1=BMT945808B.1.2.3,bus2=BMT945801B.1.2.3,Phases=3,Linecode=CAB103_3_3,Length=0.034650000,Units=km
new line.TR1428274 bus1=BMT154995187.1.2.3,bus2=BMT103183565.1.2.3,Phases=3,Linecode=CAB103_3_3,Length=0.023850000,Units=km
new line.TR1428281 bus1=BMT154995187.1.2.3,bus2=BMT945808B.1.2.3,Phases=3,Linecode=CAB103_3_3,Length=0.019100000,Units=km
new line.TR1428288 bus1=BMT154995187.1.2.3,bus2=BMT945829B.1.2.3,Phases=3,Linecode=CAB103_3_3,Length=0.015560000,Units=km
new line.TR1428302 bus1=BMT945829B.1.2.3,bus2=BMT154995189.1.2.3,Phases=3,Linecode=CAB103_3_3,Length=0.038890000,Units=km
new line.TR1428316 bus1=BMT945836B.1.2.3,bus2=BMT154995187.1.2.3,Phases=3,Linecode=CAB103_3_3,Length=0.043260000,Units=km
new line.TR1428337 bus1=BMT154995189.1.2.3,bus2=BMT945850B.1.2.3,Phases=3,Linecode=CAB103_3_3,Length=0.026900000,Units=km
new line.TR1428351 bus1=BMT945850B.1.2.3,bus2=BMT945857B.1.2.3,Phases=3,Linecode=CAB103_3_3,Length=0.030410000,Units=km
new line.TR1428372 bus1=BMT945857B.1.2.3,bus2=BMT945864B.1.2.3,Phases=3,Linecode=CAB103_3_3,Length=0.034650000,Units=km
new line.TR1428393 bus1=BMT945864B.1.2.3,bus2=BMT154995190.1.2.3,Phases=3,Linecode=CAB103_3_3,Length=0.030410000,Units=km
new line.TR1428407 bus1=BMT103183649.1.2.3,bus2=BMT3406952B.1.2.3,Phases=3,Linecode=CAB202_3_3,Length=0.123150000,Units=km
new line.TR1428470 bus1=BMT945920B.1.2.3,bus2=BMT128243453.1.2.3,Phases=3,Linecode=CABA06_3_3,Length=0.030610000,Units=km
new line.TR1428491 bus1=BMT128243446.1.2.3,bus2=BMT945920B.1.2.3,Phases=3,Linecode=CABA06_3_3,Length=0.031890000,Units=km
new line.TR1428673 bus1=BMT154995186.1.2.3,bus2=BMT945836B.1.2.3,Phases=3,Linecode=CAB103_3_3,Length=0.029680000,Units=km
new line.TR1428680 bus1=BMT946179B.1.2.3,bus2=BMT154995186.1.2.3,Phases=3,Linecode=CAB103_3_3,Length=0.034480000,Units=km
new line.TR1428687 bus1=BMT946186B.1.2.3,bus2=BMT946179B.1.2.3,Phases=3,Linecode=CAB103_3_3,Length=0.011180000,Units=km
new line.TR1428701 bus1=BMT946200B.1.2.3,bus2=BMT946186B.1.2.3,Phases=3,Linecode=CAB103_3_3,Length=0.025630000,Units=km
new line.TR1428715 bus1=BMT946221B.1.2.3,bus2=BMT946200B.1.2.3,Phases=3,Linecode=CAB103_3_3,Length=0.034540000,Units=km
new line.TR1428722 bus1=BMT946235B.1.2.3,bus2=BMT946221B.1.2.3,Phases=3,Linecode=CAB103_3_3,Length=0.006710000,Units=km
new line.TR10358468 bus1=BMT6609899B.1.2.3,bus2=BMT169743332.1.2.3,Phases=3,Linecode=CAB104_3_3,Length=0.017090000,Units=km
new line.TR10358475 bus1=BMT157732748.1.2.3,bus2=BMT6609899B.1.2.3,Phases=3,Linecode=CAB104_3_3,Length=0.014320000,Units=km
new line.TR10358580 bus1=BMT959948B.1.2.3,bus2=BMT6610207B.1.2.3,Phases=3,Linecode=CAB104_3_3,Length=0.021930000,Units=km
new line.TR10358587 bus1=BMT6610207B.1.2.3,bus2=BMT157732748.1.2.3,Phases=3,Linecode=CAB104_3_3,Length=0.018030000,Units=km
new line.TR10359245 bus1=BMT966101B.1,bus2=BMT6611348B.1,Phases=1,Linecode=CAB102_3_1,Length=0.025490000,Units=km
new line.TR10359252 bus1=BMT6611348B.1,bus2=BMT966115B.1,Phases=1,Linecode=CAB102_3_1,Length=0.024740000,Units=km
new line.TR11382295 bus1=BMT103183642.1.2.3,bus2=BMT103183649.1.2.3,Phases=3,Linecode=CAB202_3_3,Length=0.069040000,Units=km
new line.TR11382302 bus1=BMT154995188.1.2.3,bus2=BMT103183600.1.2.3,Phases=3,Linecode=CAB103_3_3,Length=0.037650000,Units=km
new line.TR11382379 bus1=BMT154995188.1.2.3,bus2=BMT154995191.1.2.3,Phases=3,Linecode=CABA06_3_3,Length=0.037570000,Units=km
new line.TR11892147 bus1=BMT128243453.1.2.3,bus2=BMT945899B.1.2.3,Phases=3,Linecode=CABA06_3_3,Length=0.030610000,Units=km
new line.TR11893365 bus1=BMT945899B.1.2.3,bus2=BMT127845132.1.2.3,Phases=3,Linecode=CABA06_3_3,Length=0.006080000,Units=km
new line.TR11893372 bus1=BMT152618803.1.2.3,bus2=BMT8046096B.1.2.3,Phases=3,Linecode=CABA06_3_3,Length=0.029270000,Units=km
new line.TR11893379 bus1=BMT8046096B.1.2.3,bus2=BMT8046124B.1.2.3,Phases=3,Linecode=CABA06_3_3,Length=0.030260000,Units=km
new line.TR11893393 bus1=BMT8046124B.1.2.3,bus2=BMT8046138B.1.2.3,Phases=3,Linecode=CABA06_3_3,Length=0.036220000,Units=km
new line.TR11893414 bus1=BMT8046138B.1.2.3,bus2=BMT152618804.1.2.3,Phases=3,Linecode=CABA06_3_3,Length=0.035510000,Units=km
new line.TR11893421 bus1=BMT152618804.1.2.3,bus2=BMT8046236B.1.2.3,Phases=3,Linecode=CABA06_3_3,Length=0.035350000,Units=km
new line.TR11893428 bus1=BMT8046236B.1.2.3,bus2=BMT8046250B.1.2.3,Phases=3,Linecode=CABA06_3_3,Length=0.035350000,Units=km
new line.TR11893435 bus1=BMT8046250B.1.2.3,bus2=BMT152618805.1.2.3,Phases=3,Linecode=CABA06_3_3,Length=0.032980000,Units=km
new line.TR11893442 bus1=BMT152618804.1.2.3,bus2=BMT8046551B.1.2.3,Phases=3,Linecode=CABA06_3_3,Length=0.032200000,Units=km
new line.TR11893449 bus1=BMT8046551B.1.2.3,bus2=BMT8046558B.1.2.3,Phases=3,Linecode=CABA06_3_3,Length=0.034410000,Units=km
new line.TR11893456 bus1=BMT8046558B.1.2.3,bus2=BMT8046565B.1.2.3,Phases=3,Linecode=CABA06_3_3,Length=0.035220000,Units=km
new line.TR11893463 bus1=BMT8046565B.1.2.3,bus2=BMT8046579B.1.2.3,Phases=3,Linecode=CABA06_3_3,Length=0.034670000,Units=km
new line.TR11893470 bus1=BMT8046579B.1.2.3,bus2=BMT8046453B.1.2.3,Phases=3,Linecode=CABA06_3_3,Length=0.008060000,Units=km
new line.TR11893477 bus1=BMT8046453B.1.2.3,bus2=BMT152618806.1.2.3,Phases=3,Linecode=CABA06_3_3,Length=0.029150000,Units=km
new line.TR12130341 bus1=BMT165087152.1.2.3,bus2=BMT6610032B.1.2.3,Phases=3,Linecode=CABA06_3_3,Length=0.021630000,Units=km
new line.TR12130344 bus1=BMT6610032B.1.2.3,bus2=BMT165087153.1.2.3,Phases=3,Linecode=CABA06_3_3,Length=0.034360000,Units=km
new line.TR12130346 bus1=BMT165087153.1.2.3,bus2=BMT6610424B.1.2.3,Phases=3,Linecode=CABA06_3_3,Length=0.035220000,Units=km
new line.TR12130351 bus1=BMT6610424B.1.2.3,bus2=BMT6611005B.1.2.3,Phases=3,Linecode=CABA06_3_3,Length=0.035220000,Units=km
new line.TR12130352 bus1=BMT6611005B.1.2.3,bus2=BMT6611026B.1.2.3,Phases=3,Linecode=CABA06_3_3,Length=0.036120000,Units=km
new line.TR12130353 bus1=BMT6611026B.1.2.3,bus2=BMT6611033B.1.2.3,Phases=3,Linecode=CABA06_3_3,Length=0.036010000,Units=km
new line.TR12130354 bus1=BMT6611033B.1.2.3,bus2=BMT6611040B.1.2.3,Phases=3,Linecode=CABA06_3_3,Length=0.035010000,Units=km
new line.TR12130357 bus1=BMT6611040B.1.2.3,bus2=BMT8724092B.1.2.3,Phases=3,Linecode=CABA06_3_3,Length=0.028070000,Units=km
new line.TR12130372 bus1=BMT8724092B.1.2.3,bus2=BMT165087154.1.2.3,Phases=3,Linecode=CABA06_3_3,Length=0.023000000,Units=km
new line.TR1425383 bus1=BMT943281B.1.2.3,bus2=BMT153681178.1.2.3,Phases=3,Linecode=CAB102_3_3,Length=0.034540000,Units=km
new line.TR1425390 bus1=BMT943288B.1.2.3,bus2=BMT943281B.1.2.3,Phases=3,Linecode=CAB102_3_3,Length=0.035840000,Units=km
new line.TR1425397 bus1=BMT943295B.1.2.3,bus2=BMT943288B.1.2.3,Phases=3,Linecode=CAB102_3_3,Length=0.036770000,Units=km
new line.TR1425425 bus1=BMT943344B.1.2.3,bus2=BMT945724B.1.2.3,Phases=3,Linecode=CAB103_3_3,Length=0.031060000,Units=km
new line.TR1425439 bus1=BMT128243418.1.2.3,bus2=BMT943337B.1.2.3,Phases=3,Linecode=CAB103_3_3,Length=0.026170000,Units=km
new line.TR1425446 bus1=BMT128243418.1.2.3,bus2=BMT943344B.1.2.3,Phases=3,Linecode=CAB103_3_3,Length=0.016640000,Units=km
new line.TR1425453 bus1=BMT128243418.1.2.3,bus2=BMT943358B.1.2.3,Phases=3,Linecode=CAB103_3_3,Length=0.009220000,Units=km
new line.TR1425481 bus1=BMT943358B.1.2.3,bus2=BMT943372B.1.2.3,Phases=3,Linecode=CAB103_3_3,Length=0.029000000,Units=km
new line.TR1425495 bus1=BMT943365B.1.2.3,bus2=BMT128243418.1.2.3,Phases=3,Linecode=CAB103_3_3,Length=0.015810000,Units=km
new line.TR1425509 bus1=BMT943372B.1.2.3,bus2=BMT943386B.1.2.3,Phases=3,Linecode=CAB103_3_3,Length=0.030410000,Units=km
new line.TR1425516 bus1=BMT128243411.1.2.3,bus2=BMT943365B.1.2.3,Phases=3,Linecode=CAB103_3_3,Length=0.030230000,Units=km
new line.TR1425523 bus1=BMT943386B.1.2.3,bus2=BMT128243432.1.2.3,Phases=3,Linecode=CAB103_3_3,Length=0.033970000,Units=km
new line.TR1425628 bus1=BMT943463B.1.2.3,bus2=BMT944100B.1.2.3,Phases=3,Linecode=CAB103_3_3,Length=0.031060000,Units=km
new line.TR1425635 bus1=BMT109916165.1.2.3,bus2=BMT103183593.1.2.3,Phases=3,Linecode=CAB103_3_3,Length=0.027580000,Units=km
new line.TR1425642 bus1=BMT109916165.1.2.3,bus2=BMT943463B.1.2.3,Phases=3,Linecode=CAB103_3_3,Length=0.023600000,Units=km
new line.TR1425649 bus1=BMT109916165.1.2.3,bus2=BMT943484B.1.2.3,Phases=3,Linecode=CAB103_3_3,Length=0.007070000,Units=km
new line.TR1425663 bus1=BMT943491B.1.2.3,bus2=BMT109916165.1.2.3,Phases=3,Linecode=CAB103_3_3,Length=0.008600000,Units=km
new line.TR1425684 bus1=BMT109916151.1.2.3,bus2=BMT943491B.1.2.3,Phases=3,Linecode=CAB103_3_3,Length=0.032750000,Units=km
new line.TR1425712 bus1=BMT943519B.1.2.3,bus2=BMT109916151.1.2.3,Phases=3,Linecode=CAB103_3_3,Length=0.013040000,Units=km
new line.TR1425719 bus1=BMT943540B.1.2.3,bus2=BMT943519B.1.2.3,Phases=3,Linecode=CAB103_3_3,Length=0.015000000,Units=km
new line.TR1425740 bus1=BMT943561B.1.2.3,bus2=BMT943540B.1.2.3,Phases=3,Linecode=CAB103_3_3,Length=0.035510000,Units=km
new line.TR1425768 bus1=BMT943582B.1.2.3,bus2=BMT953277B.1.2.3,Phases=3,Linecode=CAB103_3_3,Length=0.031110000,Units=km
new line.TR10254196 bus1=BMT6447751B.1.2.3,bus2=BMT6447758B.1.2.3,Phases=3,Linecode=CABA06_3_3,Length=0.032010000,Units=km
new line.TR10272921 bus1=BMT150342197.1.2.3,bus2=BMT150342198.1.2.3,Phases=3,Linecode=CAB601_5_3,Length=0.006400000,Units=km
new line.TR10272928 bus1=BMT150342198.1.2.3,bus2=BMT150342199.1.2.3,Phases=3,Linecode=CAB601_3_3,Length=0.006400000,Units=km
new line.TR11618447 bus1=BMT6447758B.1.2.3,bus2=BMT161166703.1.2.3,Phases=3,Linecode=CABA06_3_3,Length=0.020120000,Units=km
new line.TR11618454 bus1=BMT161166703.1.2.3,bus2=BMT6447765B.1.2.3,Phases=3,Linecode=CABA06_3_3,Length=0.006710000,Units=km
new line.TR11618524 bus1=BMT6447765B.1.2.3,bus2=BMT7819149B.1.2.3,Phases=3,Linecode=CABA06_3_3,Length=0.025080000,Units=km
new line.TR11618601 bus1=BMT6447772B.1.2.3,bus2=BMT7819184B.1.2.3,Phases=3,Linecode=CABA06_3_3,Length=0.028630000,Units=km
new line.TR11618769 bus1=BMT161166704.1.2.3,bus2=BMT6447772B.1.2.3,Phases=3,Linecode=CABA06_3_3,Length=0.006710000,Units=km
new line.TR11618776 bus1=BMT7819149B.1.2.3,bus2=BMT161166704.1.2.3,Phases=3,Linecode=CABA06_3_3,Length=0.018790000,Units=km
new line.TR11619161 bus1=BMT7819184B.1.2.3,bus2=BMT7819702B.1.2.3,Phases=3,Linecode=CABA06_3_3,Length=0.009850000,Units=km
new line.TR11619168 bus1=BMT7819702B.1.2.3,bus2=BMT6447779B.1.2.3,Phases=3,Linecode=CABA06_3_3,Length=0.028630000,Units=km
new line.TR11620400 bus1=BMT6447779B.1.2.3,bus2=BMT7819219B.1.2.3,Phases=3,Linecode=CABA06_3_3,Length=0.039390000,Units=km
new line.TR11620421 bus1=BMT161166706.1.2.3,bus2=BMT7820059B.1.2.3,Phases=3,Linecode=CABA06_3_3,Length=0.033280000,Units=km
new line.TR11620428 bus1=BMT7820059B.1.2.3,bus2=BMT7820066B.1.2.3,Phases=3,Linecode=CABA06_3_3,Length=0.029960000,Units=km
new line.TR11620435 bus1=BMT7820066B.1.2.3,bus2=BMT7820073B.1.2.3,Phases=3,Linecode=CABA06_3_3,Length=0.029960000,Units=km
new line.TR11620442 bus1=BMT7820073B.1.2.3,bus2=BMT7820080B.1.2.3,Phases=3,Linecode=CABA06_3_3,Length=0.036240000,Units=km
new line.TR11620449 bus1=BMT7820080B.1.2.3,bus2=BMT7820416B.1.2.3,Phases=3,Linecode=CABA06_3_3,Length=0.016120000,Units=km
new line.TR11620456 bus1=BMT7820416B.1.2.3,bus2=BMT161166708.1.2.3,Phases=3,Linecode=CABA06_3_3,Length=0.031240000,Units=km
new line.TR11620463 bus1=BMT161166706.1.2.3,bus2=BMT161166709.1.2.3,Phases=3,Linecode=CABA06_3_3,Length=0.027310000,Units=km
new line.TR11620484 bus1=BMT7819702B.1.2.3,bus2=BMT7819954B.1.2.3,Phases=3,Linecode=CABA06_3_3,Length=0.010770000,Units=km
new line.TR11620491 bus1=BMT7819702B.1.2.3,bus2=BMT7819709B.1.2.3,Phases=3,Linecode=CABA06_3_3,Length=0.011180000,Units=km
new line.TR11620512 bus1=BMT7819709B.1.2.3,bus2=BMT7819723B.1.2.3,Phases=3,Linecode=CABA06_3_3,Length=0.038070000,Units=km
new line.TR11620519 bus1=BMT161166704.1.2.3,bus2=BMT7819639B.1.2.3,Phases=3,Linecode=CABA06_3_3,Length=0.020120000,Units=km
new line.TR11620526 bus1=BMT161166704.1.2.3,bus2=BMT161166707.1.2.3,Phases=3,Linecode=CABA06_3_3,Length=0.011700000,Units=km
new line.TR11620533 bus1=BMT161166703.1.2.3,bus2=BMT7819107B.1.2.3,Phases=3,Linecode=CABA06_3_3,Length=0.022850000,Units=km
new line.TR11620540 bus1=BMT161166703.1.2.3,bus2=BMT161166705.1.2.3,Phases=3,Linecode=CABA06_3_3,Length=0.011700000,Units=km
new line.TR11621863 bus1=BMT7819219B.1.2.3,bus2=BMT7819996B.1.2.3,Phases=3,Linecode=CABA06_3_3,Length=0.009850000,Units=km
new line.TR11621870 bus1=BMT7819996B.1.2.3,bus2=BMT161166706.1.2.3,Phases=3,Linecode=CABA06_3_3,Length=0.028630000,Units=km
new line.TR12181760 bus1=BMT162325220.1.2.3,bus2=BMT150669823.1.2.3,Phases=3,Linecode=CABA06_3_3,Length=0.034130000,Units=km
new line.TR12181771 bus1=BMT162325230.1.2.3,bus2=BMT3803117B.1.2.3,Phases=3,Linecode=CABA06_3_3,Length=0.041430000,Units=km
new line.TR12181772 bus1=BMT3803117B.1.2.3,bus2=BMT7924618B.1.2.3,Phases=3,Linecode=CABA06_3_3,Length=0.035690000,Units=km
new line.TR12181773 bus1=BMT7924618B.1.2.3,bus2=BMT162325231.1.2.3,Phases=3,Linecode=CABA06_3_3,Length=0.032550000,Units=km
new line.TR12181774 bus1=BMT162325231.1.2.3,bus2=BMT8780496B.1.2.3,Phases=3,Linecode=CABA06_3_3,Length=0.030590000,Units=km
new line.TR12181775 bus1=BMT8780496B.1.2.3,bus2=BMT8780562B.1.2.3,Phases=3,Linecode=CABA06_3_3,Length=0.030590000,Units=km
new line.TR12181776 bus1=BMT8780562B.1.2.3,bus2=BMT8780563B.1.2.3,Phases=3,Linecode=CABA06_3_3,Length=0.009900000,Units=km
new line.TR12181777 bus1=BMT8780563B.1.2.3,bus2=BMT8780622B.1.2.3,Phases=3,Linecode=CABA06_3_3,Length=0.020020000,Units=km
new line.TR12181778 bus1=BMT8780622B.1.2.3,bus2=BMT8780565B.1.2.3,Phases=3,Linecode=CABA06_3_3,Length=0.028000000,Units=km
new line.TR12181779 bus1=BMT8780565B.1.2.3,bus2=BMT8780570B.1.2.3,Phases=3,Linecode=CABA06_3_3,Length=0.027070000,Units=km
new line.TR12181780 bus1=BMT8780570B.1.2.3,bus2=BMT162325232.1.2.3,Phases=3,Linecode=CABA06_3_3,Length=0.033300000,Units=km
new line.TR12181785 bus1=BMT162325232.1.2.3,bus2=BMT8780573B.1.2.3,Phases=3,Linecode=CABA06_3_3,Length=0.033610000,Units=km
new line.TR12181786 bus1=BMT8780573B.1.2.3,bus2=BMT8780576B.1.2.3,Phases=3,Linecode=CABA06_3_3,Length=0.030230000,Units=km
new line.TR12181787 bus1=BMT8780576B.1.2.3,bus2=BMT8780578B.1.2.3,Phases=3,Linecode=CABA06_3_3,Length=0.033240000,Units=km
new line.TR12181788 bus1=BMT8780578B.1.2.3,bus2=BMT162325233.1.2.3,Phases=3,Linecode=CABA06_3_3,Length=0.032060000,Units=km
new line.TR12620531 bus1=BMT2051367B.1.2.3,bus2=BMT167073104.1.2.3,Phases=3,Linecode=CABA06_3_3,Length=0.040160000,Units=km
new line.TR12620532 bus1=BMT167073104.1.2.3,bus2=BMT2051374B.1.2.3,Phases=3,Linecode=CAB102_3_3,Length=0.139240000,Units=km
new line.TR1455000 bus1=BMT964414B.1.2.3,bus2=BMT162325222.1.2.3,Phases=3,Linecode=CABA08_3_3,Length=0.031570000,Units=km
new line.TR1455021 bus1=BMT162325221.1.2.3,bus2=BMT964414B.1.2.3,Phases=3,Linecode=CABA08_3_3,Length=0.031570000,Units=km
new line.TR1455028 bus1=BMT964428B.1.2.3,bus2=BMT162325221.1.2.3,Phases=3,Linecode=CABA08_3_3,Length=0.031780000,Units=km
new line.TR1455049 bus1=BMT162325220.1.2.3,bus2=BMT964428B.1.2.3,Phases=3,Linecode=CABA08_3_3,Length=0.034360000,Units=km
new line.TR1455084 bus1=BMT162325219.1.2.3,bus2=BMT162325220.1.2.3,Phases=3,Linecode=CABA08_3_3,Length=0.031780000,Units=km
new line.TR1455098 bus1=BMT964505B.1.2.3,bus2=BMT162325219.1.2.3,Phases=3,Linecode=CABA08_3_3,Length=0.026680000,Units=km
new line.TR1455154 bus1=BMT964540B.1.2.3,bus2=BMT964505B.1.2.3,Phases=3,Linecode=CABA08_3_3,Length=0.034520000,Units=km
new line.TR1455469 bus1=BMT964806B.1.2.3,bus2=BMT966479B.1.2.3,Phases=3,Linecode=CAB102_3_3,Length=0.014870000,Units=km
new line.TR1455497 bus1=BMT156513252.1.2.3,bus2=BMT964806B.1.2.3,Phases=3,Linecode=CAB102_3_3,Length=0.039560000,Units=km
new line.TR1455539 bus1=BMT156513250.1.2.3,bus2=BMT156513252.1.2.3,Phases=3,Linecode=CAB102_3_3,Length=0.038270000,Units=km
new line.TR11593387 bus1=BMT972002B.1.2.3,bus2=BMT164969747.1.2.3,Phases=3,Linecode=CABA08_3_3,Length=0.033600000,Units=km
new line.TR11927581 bus1=BMT156513252.1.2.3,bus2=BMT964820B.1.2.3,Phases=3,Linecode=CAB902_4_3,Length=0.036050000,Units=km
new line.TR11927588 bus1=BMT964820B.1.2.3,bus2=BMT964813B.1.2.3,Phases=3,Linecode=CAB902_4_3,Length=0.037000000,Units=km
new line.TR11927595 bus1=BMT964813B.1.2.3,bus2=BMT3654934B.1.2.3,Phases=3,Linecode=CAB902_4_3,Length=0.037330000,Units=km
new line.TR11927602 bus1=BMT3654934B.1.2.3,bus2=BMT966472B.1.2.3,Phases=3,Linecode=CAB902_4_3,Length=0.016490000,Units=km
new line.TR11927714 bus1=BMT966472B.1.2.3,bus2=BMT156513254.1.2.3,Phases=3,Linecode=CAB902_4_3,Length=0.016640000,Units=km
new line.TR11933034 bus1=BMT162010469.1.2.3,bus2=BMT164270097.1.2.3,Phases=3,Linecode=CABA06_3_3,Length=0.034130000,Units=km
new line.TR11934630 bus1=BMT955902B.1.2.3,bus2=BMT8083343B.1.2.3,Phases=3,Linecode=CAB102_3_3,Length=0.005000000,Units=km
new line.TR11934637 bus1=BMT8083343B.1.2.3,bus2=BMT137744588.1.2.3,Phases=3,Linecode=CAB102_3_3,Length=0.036670000,Units=km
new line.TR12171175 bus1=BMT156639047.1.2.3,bus2=BMT156639048.1.2.3,Phases=3,Linecode=CAB601_3_3,Length=0.005100000,Units=km
new line.TR12171178 bus1=BMT156639048.1.2.3,bus2=BMT156639049.1.2.3,Phases=3,Linecode=CAB601_3_3,Length=0.015130000,Units=km
new line.TR12171183 bus1=BMT156639049.1.2.3,bus2=BMT156639050.1.2.3,Phases=3,Linecode=CAB601_3_3,Length=0.006000000,Units=km
new line.TR12454005 bus1=BMT161166709.1.2.3,bus2=BMT7819268B.1.2.3,Phases=3,Linecode=CABA08_3_3,Length=0.029960000,Units=km
new line.TR12464694 bus1=BMT167106070.1.2.3,bus2=BMT167106071.1.2.3,Phases=3,Linecode=CAB108_3_3,Length=0.032650000,Units=km
new line.TR12464704 bus1=BMT989327D.1.2.3,bus2=BMT989320D.1.2.3,Phases=3,Linecode=CABA08_3_3,Length=0.038910000,Units=km
new line.TR12464705 bus1=BMT989320D.1.2.3,bus2=BMT989278D.1.2.3,Phases=3,Linecode=CABA08_3_3,Length=0.032690000,Units=km
new line.TR12464706 bus1=BMT989278D.1.2.3,bus2=BMT989264B.1.2.3,Phases=3,Linecode=CABA08_3_3,Length=0.023260000,Units=km
new line.TR12464711 bus1=BMT167106071.1.2.3,bus2=BMT989327D.1.2.3,Phases=3,Linecode=CABA08_3_3,Length=0.038910000,Units=km
new line.TR1444227 bus1=BMT957232B.1.2.3,bus2=BMT957225B.1.2.3,Phases=3,Linecode=CAB104_3_3,Length=0.028630000,Units=km
new line.TR1444234 bus1=BMT103181850.1.2.3,bus2=BMT957232B.1.2.3,Phases=3,Linecode=CAB104_3_3,Length=0.032550000,Units=km
new line.TR1444241 bus1=BMT957246B.1.2.3,bus2=BMT103181850.1.2.3,Phases=3,Linecode=CAB104_3_3,Length=0.034710000,Units=km
new line.TR1444248 bus1=BMT957253B.1.2.3,bus2=BMT957246B.1.2.3,Phases=3,Linecode=CAB104_3_3,Length=0.033730000,Units=km
new line.TR1444255 bus1=BMT103181843.1.2.3,bus2=BMT957253B.1.2.3,Phases=3,Linecode=CAB104_3_3,Length=0.033730000,Units=km
new line.TR1444269 bus1=BMT169743329.1.2.3,bus2=BMT103181829.1.2.3,Phases=3,Linecode=CAB104_3_3,Length=0.034710000,Units=km
new line.TR1444276 bus1=BMT169743329.1.2.3,bus2=BMT957288B.1.2.3,Phases=3,Linecode=CAB003_3_3,Length=0.090260000,Units=km
new line.TR1444283 bus1=BMT957288B.1.2.3,bus2=BMT169743334.1.2.3,Phases=3,Linecode=CAB003_3_3,Length=0.093990000,Units=km
new line.TR1444297 bus1=BMT957323B.1.2.3,bus2=BMT957337B.1.2.3,Phases=3,Linecode=CAB102_3_3,Length=0.030460000,Units=km
new line.TR1444304 bus1=BMT169743340.1.2.3,bus2=BMT957323B.1.2.3,Phases=3,Linecode=CAB102_3_3,Length=0.028230000,Units=km
new line.TR1444311 bus1=BMT957337B.1.2.3,bus2=BMT169743342.1.2.3,Phases=3,Linecode=CAB102_3_3,Length=0.020250000,Units=km
new line.TR1444318 bus1=BMT169743342.1.2.3,bus2=BMT957351B.1.2.3,Phases=3,Linecode=CAB104_3_3,Length=0.005000000,Units=km
new line.TR1444325 bus1=BMT957351B.1.2.3,bus2=BMT169743345.1.2.3,Phases=3,Linecode=CAB104_3_3,Length=0.043260000,Units=km
new line.TR1444339 bus1=BMT169743345.1.2.3,bus2=BMT103182060.1.2.3,Phases=3,Linecode=CAB104_3_3,Length=0.039960000,Units=km
new line.TR1444346 bus1=BMT161227279.1.2.3,bus2=BMT161227280.1.2.3,Phases=3,Linecode=CAB902_4_3,Length=0.015030000,Units=km
new line.TR1444353 bus1=BMT103182060.1.2.3,bus2=BMT103181871.1.2.3,Phases=3,Linecode=CAB104_3_3,Length=0.024700000,Units=km
new line.TR1444360 bus1=BMT103181857.1.2.3,bus2=BMT103181864.1.2.3,Phases=3,Linecode=CAB104_3_3,Length=0.021630000,Units=km
new line.TR1444367 bus1=BMT103181857.1.2.3,bus2=BMT103181878.1.2.3,Phases=3,Linecode=CABA06_3_3,Length=0.009220000,Units=km
new line.TR1444724 bus1=BMT957624B.1.2.3,bus2=BMT957631B.1.2.3,Phases=3,Linecode=CAB103_3_3,Length=0.032980000,Units=km
new line.TR1444878 bus1=BMT957757B.1.2.3,bus2=BMT156121651.1.2.3,Phases=3,Linecode=CAB104_3_3,Length=0.029830000,Units=km
new line.TR1444885 bus1=BMT156121651.1.2.3,bus2=BMT156121670.1.2.3,Phases=3,Linecode=CAB104_3_3,Length=0.032010000,Units=km
new line.TR1444892 bus1=BMT156121670.1.2.3,bus2=BMT957778B.1.2.3,Phases=3,Linecode=CAB104_3_3,Length=0.032980000,Units=km
new line.TR1444906 bus1=BMT957778B.1.2.3,bus2=BMT2333334.1.2.3,Phases=3,Linecode=CAB104_3_3,Length=0.032980000,Units=km
new line.TR1444913 bus1=BMT156121654.1.2.3,bus2=BMT156121668.1.2.3,Phases=3,Linecode=CAB103_3_3,Length=0.032010000,Units=km
new line.TR1444948 bus1=BMT957834B.1.2.3,bus2=BMT156121659.1.2.3,Phases=3,Linecode=CAB102_3_3,Length=0.031380000,Units=km
new line.TR1444962 bus1=BMT156121659.1.2.3,bus2=BMT156121660.1.2.3,Phases=3,Linecode=CAB102_3_3,Length=0.029150000,Units=km
new line.TR1445277 bus1=BMT958023B.1.2.3,bus2=BMT958030B.1.2.3,Phases=3,Linecode=CAB102_3_3,Length=0.020610000,Units=km
new line.TR1445298 bus1=BMT958030B.1.2.3,bus2=BMT103184496.1.2.3,Phases=3,Linecode=CAB102_3_3,Length=0.010440000,Units=km
new line.TR1445312 bus1=BMT103184496.1.2.3,bus2=BMT958044B.1.2.3,Phases=3,Linecode=CAB102_3_3,Length=0.033520000,Units=km
new line.TR1445319 bus1=BMT958044B.1.2.3,bus2=BMT958058B.1.2.3,Phases=3,Linecode=CAB102_3_3,Length=0.037100000,Units=km
new line.TR1445326 bus1=BMT958058B.1.2.3,bus2=BMT103184503.1.2.3,Phases=3,Linecode=CAB102_3_3,Length=0.011180000,Units=km
new line.TR1445830 bus1=BMT103184503.1.2.3,bus2=BMT103184510.1.2.3,Phases=3,Linecode=CAB103_3_3,Length=0.024740000,Units=km
new line.TR1445837 bus1=BMT103184510.1.2.3,bus2=BMT958345B.1.2.3,Phases=3,Linecode=CAB103_3_3,Length=0.028230000,Units=km
new line.TR1445844 bus1=BMT958345B.1.2.3,bus2=BMT958359B.1.2.3,Phases=3,Linecode=CAB103_3_3,Length=0.028160000,Units=km
new line.TR1445851 bus1=BMT958359B.1.2.3,bus2=BMT958373B.1.2.3,Phases=3,Linecode=CAB103_3_3,Length=0.035440000,Units=km
new line.TR1445872 bus1=BMT958373B.1.2.3,bus2=BMT958387B.1.2.3,Phases=3,Linecode=CAB103_3_3,Length=0.026920000,Units=km
new line.TR1445893 bus1=BMT958387B.1.2.3,bus2=BMT958401B.1.2.3,Phases=3,Linecode=CAB103_3_3,Length=0.038270000,Units=km
new line.TR10491657 bus1=BMT103182277.1.2.3,bus2=BMT956854B.1.2.3,Phases=3,Linecode=CABA06_3_3,Length=0.036890000,Units=km
new line.TR10491664 bus1=BMT956854B.1.2.3,bus2=BMT956840B.1.2.3,Phases=3,Linecode=CABA06_3_3,Length=0.034670000,Units=km
new line.TR10491671 bus1=BMT956840B.1.2.3,bus2=BMT103182284.1.2.3,Phases=3,Linecode=CABA06_3_3,Length=0.037730000,Units=km
new line.TR11474674 bus1=BMT103183285.1.2.3,bus2=BMT103183292.1.2.3,Phases=3,Linecode=CAB902_4_3,Length=0.008940000,Units=km
new line.TR11686186 bus1=BMT113436577.1.2.3,bus2=BMT945024B.1.2.3,Phases=3,Linecode=CABA06_3_3,Length=0.020520000,Units=km
new line.TR11686193 bus1=BMT113436577.1.2.3,bus2=BMT944996B.1.2.3,Phases=3,Linecode=CABA06_3_3,Length=0.009220000,Units=km
new line.TR11686200 bus1=BMT944996B.1.2.3,bus2=BMT113436598.1.2.3,Phases=3,Linecode=CABA06_3_3,Length=0.036790000,Units=km
new line.TR11686242 bus1=BMT113436570.1.2.3,bus2=BMT945080B.1.2.3,Phases=3,Linecode=CABA06_3_3,Length=0.024080000,Units=km
new line.TR11686249 bus1=BMT113436570.1.2.3,bus2=BMT945052B.1.2.3,Phases=3,Linecode=CABA06_3_3,Length=0.008490000,Units=km
new line.TR11686256 bus1=BMT945052B.1.2.3,bus2=BMT113436584.1.2.3,Phases=3,Linecode=CABA06_3_3,Length=0.029000000,Units=km
new line.TR12491996 bus1=BMT162012193.1.2.3,bus2=BMT162012194.1.2.3,Phases=3,Linecode=CAB401_3_3,Length=0.004120000,Units=km
new line.TR12492002 bus1=BMT162012194.1.2.3,bus2=BMT162012195.1.2.3,Phases=3,Linecode=CAB401_5_3,Length=0.008600000,Units=km
new line.TR12492053 bus1=BMT162012195.1.2.3,bus2=BMT162012196.1.2.3,Phases=3,Linecode=CAB401_5_3,Length=0.005660000,Units=km
new line.TR12644283 bus1=BMT168112683.1.2.3,bus2=BMT974354B.1.2.3,Phases=3,Linecode=CABA06_3_3,Length=0.030410000,Units=km
new line.TR12644284 bus1=BMT974354B.1.2.3,bus2=BMT9255069B.1.2.3,Phases=3,Linecode=CABA06_3_3,Length=0.031240000,Units=km
new line.TR12644285 bus1=BMT9255069B.1.2.3,bus2=BMT9255072B.1.2.3,Phases=3,Linecode=CABA06_3_3,Length=0.005100000,Units=km
new line.TR12644286 bus1=BMT9255072B.1.2.3,bus2=BMT168112685.1.2.3,Phases=3,Linecode=CABA06_3_3,Length=0.010200000,Units=km
new line.TR1433069 bus1=BMT949490B.1.2.3,bus2=BMT949469B.1.2.3,Phases=3,Linecode=CAB103_3_3,Length=0.014420000,Units=km
new line.TR1433076 bus1=BMT949490B.1.2.3,bus2=BMT949476B.1.2.3,Phases=3,Linecode=CAB103_3_3,Length=0.012730000,Units=km
new line.TR1433083 bus1=BMT949490B.1.2.3,bus2=BMT113436591.1.2.3,Phases=3,Linecode=CAB103_3_3,Length=0.023340000,Units=km
new line.TR1433125 bus1=BMT113436591.1.2.3,bus2=BMT949511B.1.2.3,Phases=3,Linecode=CAB103_3_3,Length=0.033240000,Units=km
new line.TR1433146 bus1=BMT949511B.1.2.3,bus2=BMT949525B.1.2.3,Phases=3,Linecode=CAB103_3_3,Length=0.033240000,Units=km