new line.RML10077256 bus1=BBT3399406.1.3.0,bus2=RML210077256.1.3.0,Phases=2,Linecode=CABBTG05_4_2,Length=0.017000000,Units=km
new line.RML10077259 bus1=BBT1263545.1.3.0,bus2=RML210077259.1.3.0,Phases=2,Linecode=CABBTG05_4_2,Length=0.014000000,Units=km
new line.RML10077290 bus1=BBT1207174.2.0,bus2=RML210077290.2.0,Phases=1,Linecode=CABBT811_4_1,Length=0.016000000,Units=km
new line.RML10077708 bus1=BBT109946377.1.2.0,bus2=RML210077708.1.2.0,Phases=2,Linecode=CABBT811_4_2,Length=0.017000000,Units=km
new line.RML10082206 bus1=BBT110049235.1.2.0,bus2=RML210082206.1.2.0,Phases=2,Linecode=CABBTG05_4_2,Length=0.017000000,Units=km
new line.RML10082539 bus1=BBT1219970.2.0,bus2=RML210082539.2.0,Phases=1,Linecode=CABBTG01_4_1,Length=0.012000000,Units=km
new line.RML10141315 bus1=BBT2117146.1.3.0,bus2=RML210141315.1.3.0,Phases=2,Linecode=CABBTG05_4_2,Length=0.007000000,Units=km
new line.RML10141339 bus1=BBT127829942.2.3.0,bus2=RML210141339.2.3.0,Phases=2,Linecode=CABBTG05_4_2,Length=0.018000000,Units=km
new line.RML10141784 bus1=BBT1220908.1.2.3.0,bus2=RML210141784.1.2.3.0,Phases=3,Linecode=CABBTG06_4_3,Length=0.017000000,Units=km
new line.RML10142471 bus1=BBT3734692.1.2.0,bus2=RML210142471.1.2.0,Phases=2,Linecode=CABBTG05_4_2,Length=0.009000000,Units=km
new line.RML10142581 bus1=BBT65532091.1.3.0,bus2=RML210142581.1.3.0,Phases=2,Linecode=CABBTG05_4_2,Length=0.017000000,Units=km
new line.RML10142999 bus1=BBT1170585.1.0,bus2=RML210142999.1.0,Phases=1,Linecode=CABBTG02_4_1,Length=0.017000000,Units=km
new line.RML10143014 bus1=BBT54367259.1.0,bus2=RML210143014.1.0,Phases=1,Linecode=CABBTG01_4_1,Length=0.017000000,Units=km
new line.RML10146342 bus1=BBT1224471.1.2.0,bus2=RML210146342.1.2.0,Phases=2,Linecode=CABBTG05_4_2,Length=0.017000000,Units=km
new line.RML10146355 bus1=BBT1230099.1.2.3.0,bus2=RML210146355.1.2.3.0,Phases=3,Linecode=CABBTG07_4_3,Length=0.017000000,Units=km
new line.RML10263024 bus1=BBT148929027.2.0,bus2=RML210263024.2.0,Phases=1,Linecode=CABBTG02_4_1,Length=0.017000000,Units=km
new line.RML10263135 bus1=BBT127837271.2.0,bus2=RML210263135.2.0,Phases=1,Linecode=CABBTG02_4_1,Length=0.017000000,Units=km
new line.RML10263137 bus1=BBT127837838.1.0,bus2=RML210263137.1.0,Phases=1,Linecode=CABBTG02_4_1,Length=0.017000000,Units=km
new line.RML10263141 bus1=BBT127819806.2.0,bus2=RML210263141.2.0,Phases=1,Linecode=CABBTG02_4_1,Length=0.017000000,Units=km
new line.RML10263143 bus1=BBT127819512.2.0,bus2=RML210263143.2.0,Phases=1,Linecode=CABBTG02_4_1,Length=0.017000000,Units=km
new line.RML10263146 bus1=BBT127819512.3.0,bus2=RML210263146.3.0,Phases=1,Linecode=CABBTG02_4_1,Length=0.017000000,Units=km
new line.RML10263148 bus1=BBT127819512.3.0,bus2=RML210263148.3.0,Phases=1,Linecode=CABBTG02_4_1,Length=0.017000000,Units=km
new line.RML10263151 bus1=BBT127819806.1.0,bus2=RML210263151.1.0,Phases=1,Linecode=CABBTG02_4_1,Length=0.017000000,Units=km
new line.RML10263153 bus1=BBT127819512.1.0,bus2=RML210263153.1.0,Phases=1,Linecode=CABBTG02_4_1,Length=0.017000000,Units=km
new line.RML10263159 bus1=BBT127827149.2.0,bus2=RML210263159.2.0,Phases=1,Linecode=CABBTG02_4_1,Length=0.017000000,Units=km
new line.RML10263162 bus1=BBT127809600.1.0,bus2=RML210263162.1.0,Phases=1,Linecode=CABBTG02_4_1,Length=0.017000000,Units=km
new line.RML10263165 bus1=BBT127827044.2.0,bus2=RML210263165.2.0,Phases=1,Linecode=CABBTG02_4_1,Length=0.017000000,Units=km
new line.RML10263166 bus1=BBT127827044.1.0,bus2=RML210263166.1.0,Phases=1,Linecode=CABBTG02_4_1,Length=0.017000000,Units=km
new line.RML10263168 bus1=BBT127827723.2.0,bus2=RML210263168.2.0,Phases=1,Linecode=CABBTG02_4_1,Length=0.017000000,Units=km
new line.RML10263169 bus1=BBT127827044.2.0,bus2=RML210263169.2.0,Phases=1,Linecode=CABBTG02_4_1,Length=0.017000000,Units=km
new line.RML10263171 bus1=BBT127827149.3.0,bus2=RML210263171.3.0,Phases=1,Linecode=CABBTG02_4_1,Length=0.017000000,Units=km
new line.RML10263172 bus1=BBT127827149.1.0,bus2=RML210263172.1.0,Phases=1,Linecode=CABBTG02_4_1,Length=0.017000000,Units=km
new line.RML10263175 bus1=BBT127837810.2.0,bus2=RML210263175.2.0,Phases=1,Linecode=CABBTG02_4_1,Length=0.017000000,Units=km
new line.RML10263179 bus1=BBT127837978.3.0,bus2=RML210263179.3.0,Phases=1,Linecode=CABBTG02_4_1,Length=0.017000000,Units=km
new line.RML10263180 bus1=BBT127837278.1.0,bus2=RML210263180.1.0,Phases=1,Linecode=CABBTG02_4_1,Length=0.017000000,Units=km
new line.RML10263184 bus1=BBT127837348.3.0,bus2=RML210263184.3.0,Phases=1,Linecode=CABBTG02_4_1,Length=0.017000000,Units=km
new line.RML10263186 bus1=BBT127837348.1.0,bus2=RML210263186.1.0,Phases=1,Linecode=CABBTG02_4_1,Length=0.017000000,Units=km
new line.RML10263189 bus1=BBT127837446.2.0,bus2=RML210263189.2.0,Phases=1,Linecode=CABBTG02_4_1,Length=0.017000000,Units=km
new line.RML10044324 bus1=BBT1213824.1.2.0,bus2=RML210044324.1.2.0,Phases=2,Linecode=CABBTG05_4_2,Length=0.017000000,Units=km
new line.RML10044394 bus1=BBT2116159.1.2.0,bus2=RML210044394.1.2.0,Phases=2,Linecode=CABBTG05_4_2,Length=0.017000000,Units=km
new line.RML10044648 bus1=BBT2117398.1.3.0,bus2=RML210044648.1.3.0,Phases=2,Linecode=CABBTG05_4_2,Length=0.017000000,Units=km
new line.RML10044703 bus1=BBT2117398.1.3.0,bus2=RML210044703.1.3.0,Phases=2,Linecode=CABBTG05_4_2,Length=0.017000000,Units=km
new line.RML10044874 bus1=BBT2117503.3.0,bus2=RML210044874.3.0,Phases=1,Linecode=CABBTG02_4_1,Length=0.017000000,Units=km
new line.RML10044898 bus1=BBT4410633.1.0,bus2=RML210044898.1.0,Phases=1,Linecode=CABBTG02_4_1,Length=0.017000000,Units=km
new line.RML10044905 bus1=BBT2117615.1.3.0,bus2=RML210044905.1.3.0,Phases=2,Linecode=CABBTG05_4_2,Length=0.017000000,Units=km
new line.RML10044932 bus1=BBT1261249.1.2.0,bus2=RML210044932.1.2.0,Phases=2,Linecode=CABBTG05_4_2,Length=0.018000000,Units=km
new line.RML10114794 bus1=BBT2052676.2.3.0,bus2=RML210114794.2.3.0,Phases=2,Linecode=CABBTG04_4_2,Length=0.017000000,Units=km
new line.RML10117219 bus1=BBT127820156.1.0,bus2=RML210117219.1.0,Phases=1,Linecode=CABBTG01_4_1,Length=0.017000000,Units=km
new line.RML10117220 bus1=BBT127837859.2.0,bus2=RML210117220.2.0,Phases=1,Linecode=CABBTG01_4_1,Length=0.017000000,Units=km
new line.RML10117221 bus1=BBT127837817.3.0,bus2=RML210117221.3.0,Phases=1,Linecode=CABBTG01_4_1,Length=0.017000000,Units=km
new line.RML10117222 bus1=BBT127809208.3.0,bus2=RML210117222.3.0,Phases=1,Linecode=CABBTG01_4_1,Length=0.017000000,Units=km
new line.RML10117223 bus1=BBT127837978.1.0,bus2=RML210117223.1.0,Phases=1,Linecode=CABBTG01_4_1,Length=0.017000000,Units=km
new line.RML10117224 bus1=BBT127827044.2.0,bus2=RML210117224.2.0,Phases=1,Linecode=CABBTG02_4_1,Length=0.017000000,Units=km
new line.RML10117225 bus1=BBT127827723.1.0,bus2=RML210117225.1.0,Phases=1,Linecode=CABBTG01_4_1,Length=0.017000000,Units=km
new line.RML10173817 bus1=BBT2538497.1.2.0,bus2=RML210173817.1.2.0,Phases=2,Linecode=CABBTG05_4_2,Length=0.017000000,Units=km
new line.RML10225338 bus1=BBT1228188.1.2.0,bus2=RML210225338.1.2.0,Phases=2,Linecode=CABBTG05_4_2,Length=0.017000000,Units=km
new line.RML10228687 bus1=BBT148853712.2.3.0,bus2=RML210228687.2.3.0,Phases=2,Linecode=CABBTG05_4_2,Length=0.017000000,Units=km
new line.RML10228907 bus1=BBT1243602.1.2.0,bus2=RML210228907.1.2.0,Phases=2,Linecode=CABBTG05_4_2,Length=0.017000000,Units=km
new line.RML10228914 bus1=BBT1249839.3.0,bus2=RML210228914.3.0,Phases=1,Linecode=CABBTG02_4_1,Length=0.017000000,Units=km
new line.RML10229354 bus1=BBT1209365.1.2.0,bus2=RML210229354.1.2.0,Phases=2,Linecode=CABBTG05_4_2,Length=0.017000000,Units=km
new line.RML10299823 bus1=BBT1223631.1.2.0,bus2=RML210299823.1.2.0,Phases=2,Linecode=CABBTG05_4_2,Length=0.017000000,Units=km
new line.RML10299824 bus1=BBT1215651.1.2.0,bus2=RML210299824.1.2.0,Phases=2,Linecode=CABBTG05_4_2,Length=0.017000000,Units=km
new line.RML10299839 bus1=BBT1242496.2.0,bus2=RML210299839.2.0,Phases=1,Linecode=CABBTG02_4_1,Length=0.017000000,Units=km
new line.RML10301477 bus1=BBT109974062.1.2.0,bus2=RML210301477.1.2.0,Phases=2,Linecode=CABBTG05_4_2,Length=0.017000000,Units=km
new line.RML10301480 bus1=BBT109993585.2.0,bus2=RML210301480.2.0,Phases=1,Linecode=CABBTG02_4_1,Length=0.017000000,Units=km
new line.RML10301666 bus1=BBT1227110.1.2.0,bus2=RML210301666.1.2.0,Phases=2,Linecode=CABBTG05_4_2,Length=0.017000000,Units=km
new line.RML10301689 bus1=BBT150670679.2.3.0,bus2=RML210301689.2.3.0,Phases=2,Linecode=CABBTG05_4_2,Length=0.017000000,Units=km
new line.RML10301696 bus1=BBT109987103.1.0,bus2=RML210301696.1.0,Phases=1,Linecode=CABBTG02_4_1,Length=0.017000000,Units=km
new line.RML10301700 bus1=BBT1205977.1.2.0,bus2=RML210301700.1.2.0,Phases=2,Linecode=CABBTG05_4_2,Length=0.017000000,Units=km
new line.RML10301749 bus1=BBT109945509.2.0,bus2=RML210301749.2.0,Phases=1,Linecode=CABBTG02_4_1,Length=0.017000000,Units=km
new line.RML10301752 bus1=BBT110018295.1.2.0,bus2=RML210301752.1.2.0,Phases=2,Linecode=CABBTG05_4_2,Length=0.017000000,Units=km
new line.RML10301777 bus1=BBT110047996.1.2.0,bus2=RML210301777.1.2.0,Phases=2,Linecode=CABBTG05_4_2,Length=0.017000000,Units=km
new line.RML10301888 bus1=BBT109992241.2.0,bus2=RML210301888.2.0,Phases=1,Linecode=CABBTG02_4_1,Length=0.017000000,Units=km
new line.RML10301952 bus1=BBT52280881.2.0,bus2=RML210301952.2.0,Phases=1,Linecode=CABBT811_4_1,Length=0.017000000,Units=km
new line.RML10301969 bus1=BBT52280881.1.0,bus2=RML210301969.1.0,Phases=1,Linecode=CABBT811_4_1,Length=0.017000000,Units=km
new line.RML10301971 bus1=BBT1219109.1.2.0,bus2=RML210301971.1.2.0,Phases=2,Linecode=CABBTG05_4_2,Length=0.017000000,Units=km
new line.RML10001797 bus1=BBT1227103.1.2.0,bus2=RML210001797.1.2.0,Phases=2,Linecode=CABBT815_4_2,Length=0.017000000,Units=km
new line.RML10001860 bus1=BBT1208742.1.2.3.0,bus2=RML210001860.1.2.3.0,Phases=3,Linecode=CABBT815_4_3,Length=0.017000000,Units=km
new line.RML10002420 bus1=BBT1227495.1.3.0,bus2=RML210002420.1.3.0,Phases=2,Linecode=CABBT815_4_2,Length=0.017000000,Units=km
new line.RML10002539 bus1=BBT1263363.2.0,bus2=RML210002539.2.0,Phases=1,Linecode=CABBTG01_4_1,Length=0.017000000,Units=km
new line.RML10110127 bus1=BBT1229980.1.2.3.0,bus2=RML210110127.1.2.3.0,Phases=3,Linecode=CABBTG06_4_3,Length=0.017000000,Units=km
new line.RML10110567 bus1=BBT1212326.1.0,bus2=RML210110567.1.0,Phases=1,Linecode=CABBTG02_4_1,Length=0.017000000,Units=km
new line.RML10157985 bus1=BBT1206117.1.0,bus2=RML210157985.1.0,Phases=1,Linecode=CABBTG01_4_1,Length=0.017000000,Units=km
new line.RML10157989 bus1=BBT1213775.2.0,bus2=RML210157989.2.0,Phases=1,Linecode=CABBTG01_4_1,Length=0.017000000,Units=km
new line.RML10157993 bus1=BBT1220201.1.0,bus2=RML210157993.1.0,Phases=1,Linecode=CABBTG01_4_1,Length=0.017000000,Units=km
new line.RML10157999 bus1=BBT1232577.1.2.0,bus2=RML210157999.1.2.0,Phases=2,Linecode=CABBTG05_4_2,Length=0.017000000,Units=km
new line.RML10158002 bus1=BBT1326713.1.2.3.0,bus2=RML210158002.1.2.3.0,Phases=3,Linecode=CABBTG06_4_3,Length=0.017000000,Units=km
new line.RML10158008 bus1=BBT1234474.1.2.0,bus2=RML210158008.1.2.0,Phases=2,Linecode=CABBTG05_4_2,Length=0.017000000,Units=km
new line.RML10158012 bus1=BBT1249356.2.3.0,bus2=RML210158012.2.3.0,Phases=2,Linecode=CABBTG05_4_2,Length=0.017000000,Units=km
new line.RML10158018 bus1=BBT1206096.1.2.0,bus2=RML210158018.1.2.0,Phases=2,Linecode=CABBTG05_4_2,Length=0.017000000,Units=km
new line.RML10158032 bus1=BBT1239227.1.2.0,bus2=RML210158032.1.2.0,Phases=2,Linecode=CABBTG05_4_2,Length=0.017000000,Units=km
new line.RML10161033 bus1=BBT1205879.1.2.3.0,bus2=RML210161033.1.2.3.0,Phases=3,Linecode=CABBTG06_4_3,Length=0.013000000,Units=km
new line.RML10161039 bus1=BBT91263503.3.0,bus2=RML210161039.3.0,Phases=1,Linecode=CABBTG02_4_1,Length=0.029000000,Units=km
new line.RML10161894 bus1=BBT1231436.1.0,bus2=RML210161894.1.0,Phases=1,Linecode=CABBTG01_4_1,Length=0.017000000,Units=km
new line.RML10161912 bus1=BBT1228244.1.2.0,bus2=RML210161912.1.2.0,Phases=2,Linecode=CABBTG05_4_2,Length=0.017000000,Units=km
new line.RML10161929 bus1=BBT1244414.1.0,bus2=RML210161929.1.0,Phases=1,Linecode=CABBTG01_4_1,Length=0.009000000,Units=km
new line.RML10162012 bus1=BBT2329652.1.2.0,bus2=RML210162012.1.2.0,Phases=2,Linecode=CABBTG05_4_2,Length=0.017000000,Units=km
new line.RML10162033 bus1=BBT2117272.1.2.0,bus2=RML210162033.1.2.0,Phases=2,Linecode=CABBTG05_4_2,Length=0.010000000,Units=km
new line.RML10210608 bus1=BBT2117531.3.0,bus2=RML210210608.3.0,Phases=1,Linecode=CABBTG02_4_1,Length=0.017000000,Units=km
new line.RML10211073 bus1=BBT148853330.1.2.0,bus2=RML210211073.1.2.0,Phases=2,Linecode=CABBTG05_4_2,Length=0.017000000,Units=km
new line.RML10211079 bus1=BBT109998751.2.0,bus2=RML210211079.2.0,Phases=1,Linecode=CABBTG02_4_1,Length=0.017000000,Units=km
new line.RML10268522 bus1=BBT1207153.3.0,bus2=RML210268522.3.0,Phases=1,Linecode=CABBTG02_4_1,Length=0.017000000,Units=km
new line.RML10268575 bus1=BBT3013454.1.0,bus2=RML210268575.1.0,Phases=1,Linecode=CABBTG02_4_1,Length=0.017000000,Units=km
new line.RML10272995 bus1=BBT150673228.1.2.0,bus2=RML210272995.1.2.0,Phases=2,Linecode=CABBTG05_4_2,Length=0.017000000,Units=km
new line.RML10342881 bus1=BBT1230729.1.2.0,bus2=RML210342881.1.2.0,Phases=2,Linecode=CABBTG05_4_2,Length=0.017000000,Units=km
new line.RML10342904 bus1=BBT2252820.1.2.0,bus2=RML210342904.1.2.0,Phases=2,Linecode=CABBT811_4_2,Length=0.017000000,Units=km
new line.RML10342910 bus1=BBT1245856.2.3.0,bus2=RML210342910.2.3.0,Phases=2,Linecode=CABBT811_4_2,Length=0.017000000,Units=km
new line.RML10343333 bus1=BBT1209043.2.0,bus2=RML210343333.2.0,Phases=1,Linecode=CABBTG02_4_1,Length=0.017000000,Units=km
new line.RML10343339 bus1=BBT150252910.1.2.3.0,bus2=RML210343339.1.2.3.0,Phases=3,Linecode=CABBT806_4_3,Length=0.017000000,Units=km
new line.RML10343376 bus1=BBT110018295.1.2.0,bus2=RML210343376.1.2.0,Phases=2,Linecode=CABBTG05_4_2,Length=0.017000000,Units=km
new line.RML10343378 bus1=BBT110018295.1.2.0,bus2=RML210343378.1.2.0,Phases=2,Linecode=CABBTG05_4_2,Length=0.017000000,Units=km
new line.RML10344043 bus1=BBT3938343.1.3.0,bus2=RML210344043.1.3.0,Phases=2,Linecode=CABBTG05_4_2,Length=0.017000000,Units=km
new line.RML10344409 bus1=BBT1232521.3.0,bus2=RML210344409.3.0,Phases=1,Linecode=CABBTG02_4_1,Length=0.017000000,Units=km
new line.RML10344467 bus1=BBT1249349.2.3.0,bus2=RML210344467.2.3.0,Phases=2,Linecode=CABBTG05_4_2,Length=0.017000000,Units=km
new line.RML10069503 bus1=BBT2117916.2.0,bus2=RML210069503.2.0,Phases=1,Linecode=CABBTG02_4_1,Length=0.010000000,Units=km
new line.RML10069690 bus1=BBT109946377.2.0,bus2=RML210069690.2.0,Phases=1,Linecode=CABBTG01_4_1,Length=0.022000000,Units=km
new line.RML10069691 bus1=BBT2117363.1.2.0,bus2=RML210069691.1.2.0,Phases=2,Linecode=CABBTG05_4_2,Length=0.006000000,Units=km
new line.RML10069759 bus1=BBT3938308.2.3.0,bus2=RML210069759.2.3.0,Phases=2,Linecode=CABBTG05_4_2,Length=0.020000000,Units=km
new line.RML10069802 bus1=BBT2117461.1.3.0,bus2=RML210069802.1.3.0,Phases=2,Linecode=CABBTG05_4_2,Length=0.017000000,Units=km
new line.RML10069804 bus1=BBT1217646.3.0,bus2=RML210069804.3.0,Phases=1,Linecode=CABBTG02_4_1,Length=0.017000000,Units=km
new line.RML10069841 bus1=BBT1218346.1.2.0,bus2=RML210069841.1.2.0,Phases=2,Linecode=CABBTG05_4_2,Length=0.017000000,Units=km
new line.RML10069843 bus1=BBT2117475.1.3.0,bus2=RML210069843.1.3.0,Phases=2,Linecode=CABBTG05_4_2,Length=0.017000000,Units=km
new line.RML10128422 bus1=BBT4582014.1.2.0,bus2=RML210128422.1.2.0,Phases=2,Linecode=CABBTG05_4_2,Length=0.017000000,Units=km
new line.RML10128629 bus1=BBT1206698.1.2.0,bus2=RML210128629.1.2.0,Phases=2,Linecode=CABBTG05_4_2,Length=0.017000000,Units=km
new line.RML10128632 bus1=BBT3938280.1.2.0,bus2=RML210128632.1.2.0,Phases=2,Linecode=CABBTG05_4_2,Length=0.017000000,Units=km
new line.RML10128687 bus1=BBT1244155.2.0,bus2=RML210128687.2.0,Phases=1,Linecode=CABBTG01_4_1,Length=0.017000000,Units=km
new line.RML10128699 bus1=BBT65512897.1.2.3.0,bus2=RML210128699.1.2.3.0,Phases=3,Linecode=CABBTG06_4_3,Length=0.017000000,Units=km
new line.RML10128706 bus1=BBT2222531.1.2.0,bus2=RML210128706.1.2.0,Phases=2,Linecode=CABBTG05_4_2,Length=0.017000000,Units=km
new line.RML10129068 bus1=BBT1222168.1.2.3.0,bus2=RML210129068.1.2.3.0,Phases=3,Linecode=CABBTG06_4_3,Length=0.017000000,Units=km
new line.RML10130377 bus1=BBT2116187.2.3.0,bus2=RML210130377.2.3.0,Phases=2,Linecode=CABBTG05_4_2,Length=0.017000000,Units=km
new line.RML10194250 bus1=BBT130131619.1.2.0,bus2=RML210194250.1.2.0,Phases=2,Linecode=CABBTG05_4_2,Length=0.017000000,Units=km
new line.RML10324173 bus1=BBT1245506.2.3.0,bus2=RML210324173.2.3.0,Phases=2,Linecode=CABBTG05_4_2,Length=0.017000000,Units=km
new line.RML10324717 bus1=BBT109974755.2.0,bus2=RML210324717.2.0,Phases=1,Linecode=CABBTG01_4_1,Length=0.017000000,Units=km
new line.RML10324843 bus1=BBT3013454.1.0,bus2=RML210324843.1.0,Phases=1,Linecode=CABBTG02_4_1,Length=0.017000000,Units=km
new line.RML10324932 bus1=BBT109991849.2.0,bus2=RML210324932.2.0,Phases=1,Linecode=CABBTG01_4_1,Length=0.017000000,Units=km
new line.RML10325796 bus1=BBT1228769.1.2.3.0,bus2=RML210325796.1.2.3.0,Phases=3,Linecode=CABBTG06_4_3,Length=0.017000000,Units=km
new line.RML10325798 bus1=BBT1216596.1.2.3.0,bus2=RML210325798.1.2.3.0,Phases=3,Linecode=CABBTG06_4_3,Length=0.017000000,Units=km
new line.RML10325802 bus1=BBT1216596.1.2.0,bus2=RML210325802.1.2.0,Phases=2,Linecode=CABBTG05_4_2,Length=0.017000000,Units=km
new line.RML10325805 bus1=BBT1217674.1.0,bus2=RML210325805.1.0,Phases=1,Linecode=CABBTG02_4_1,Length=0.017000000,Units=km
new line.RML10381745 bus1=BBT1228699.1.2.0,bus2=RML210381745.1.2.0,Phases=2,Linecode=CABBTG05_4_2,Length=0.017000000,Units=km
new line.RML10381784 bus1=BBT1231835.1.2.0,bus2=RML210381784.1.2.0,Phases=2,Linecode=CABBTG05_4_2,Length=0.017000000,Units=km
new line.RML10381796 bus1=BBT1219795.1.2.0,bus2=RML210381796.1.2.0,Phases=2,Linecode=CABBTG05_4_2,Length=0.017000000,Units=km
new line.RML10381908 bus1=BBT1229742.2.3.0,bus2=RML210381908.2.3.0,Phases=2,Linecode=CABBTG05_4_2,Length=0.017000000,Units=km
new line.RML10381966 bus1=BBT1247312.1.0,bus2=RML210381966.1.0,Phases=1,Linecode=CABBTG02_4_1,Length=0.017000000,Units=km
new line.RML10381993 bus1=BBT1216589.1.2.3.0,bus2=RML210381993.1.2.3.0,Phases=3,Linecode=CABBTG12_4_3,Length=0.017000000,Units=km
new line.RML10381994 bus1=BBT1216589.1.2.3.0,bus2=RML210381994.1.2.3.0,Phases=3,Linecode=CABBTG12_4_3,Length=0.017000000,Units=km
new line.RML10381999 bus1=BBT1226032.2.0,bus2=RML210381999.2.0,Phases=1,Linecode=CABBTG02_4_1,Length=0.017000000,Units=km
new line.RML10382001 bus1=BBT1209428.2.3.0,bus2=RML210382001.2.3.0,Phases=2,Linecode=CABBTG05_4_2,Length=0.017000000,Units=km
new line.RML10382002 bus1=BBT2117531.3.0,bus2=RML210382002.3.0,Phases=1,Linecode=CABBTG02_4_1,Length=0.017000000,Units=km
new line.RML10384056 bus1=BBT127837859.1.0,bus2=RML210384056.1.0,Phases=1,Linecode=CABBTG02_4_1,Length=0.017000000,Units=km
new line.RML10452705 bus1=BBT1232619.1.2.0,bus2=RML210452705.1.2.0,Phases=2,Linecode=CABBTG05_4_2,Length=0.017000000,Units=km
new line.RML10452709 bus1=BBT109973852.1.2.0,bus2=RML210452709.1.2.0,Phases=2,Linecode=CABBTG05_4_2,Length=0.017000000,Units=km
new line.RML10263191 bus1=BBT127837348.2.0,bus2=RML210263191.2.0,Phases=1,Linecode=CABBTG02_4_1,Length=0.017000000,Units=km
new line.RML10263196 bus1=BBT127748161.3.0,bus2=RML210263196.3.0,Phases=1,Linecode=CABBTG02_4_1,Length=0.017000000,Units=km
new line.RML10263197 bus1=BBT127748161.2.0,bus2=RML210263197.2.0,Phases=1,Linecode=CABBTG02_4_1,Length=0.017000000,Units=km
new line.RML10263199 bus1=BBT127748259.2.0,bus2=RML210263199.2.0,Phases=1,Linecode=CABBTG02_4_1,Length=0.017000000,Units=km
new line.RML10263200 bus1=BBT54367259.2.0,bus2=RML210263200.2.0,Phases=1,Linecode=CABBTG02_4_1,Length=0.017000000,Units=km
new line.RML10263202 bus1=BBT1208749.1.0,bus2=RML210263202.1.0,Phases=1,Linecode=CABBTG02_4_1,Length=0.017000000,Units=km
new line.RML10263203 bus1=BBT127748161.1.0,bus2=RML210263203.1.0,Phases=1,Linecode=CABBTG02_4_1,Length=0.017000000,Units=km
new line.RML10263204 bus1=BBT1208749.3.0,bus2=RML210263204.3.0,Phases=1,Linecode=CABBTG02_4_1,Length=0.017000000,Units=km
new line.RML10263721 bus1=BBT110018295.1.2.0,bus2=RML210263721.1.2.0,Phases=2,Linecode=CABBTG05_4_2,Length=0.017000000,Units=km
new line.RML10263787 bus1=BBT109946370.2.0,bus2=RML210263787.2.0,Phases=1,Linecode=CABBTG02_4_1,Length=0.017000000,Units=km
new line.RML10267104 bus1=BBT1240837.1.2.0,bus2=RML210267104.1.2.0,Phases=2,Linecode=CABBT815_4_2,Length=0.017000000,Units=km
new line.RML10267415 bus1=BBT2117272.1.2.0,bus2=RML210267415.1.2.0,Phases=2,Linecode=CABBTG05_4_2,Length=0.017000000,Units=km
new line.RML10277823 bus1=BBT1205900.1.0,bus2=RML210277823.1.0,Phases=1,Linecode=CABBTG01_4_1,Length=0.017000000,Units=km
new line.RML10281984 bus1=BBT2116103.1.2.0,bus2=RML210281984.1.2.0,Phases=2,Linecode=CABBTG05_4_2,Length=0.017000000,Units=km
new line.RML10282134 bus1=BBT2117286.1.2.0,bus2=RML210282134.1.2.0,Phases=2,Linecode=CABBTG05_4_2,Length=0.017000000,Units=km
new line.RML10282278 bus1=BBT3938343.1.2.0,bus2=RML210282278.1.2.0,Phases=2,Linecode=CABBTG05_4_2,Length=0.017000000,Units=km
new line.RML10282430 bus1=BBT3013454.1.0,bus2=RML210282430.1.0,Phases=1,Linecode=CABBTG02_4_1,Length=0.017000000,Units=km
new line.RML10334893 bus1=BBT109992325.1.0,bus2=RML210334893.1.0,Phases=1,Linecode=CABBTG01_4_1,Length=0.017000000,Units=km
new line.RML10334957 bus1=BBT1232507.1.2.3.0,bus2=RML210334957.1.2.3.0,Phases=3,Linecode=CABBTG06_4_3,Length=0.010000000,Units=km
new line.RML10334987 bus1=BBT1231408.1.2.3.0,bus2=RML210334987.1.2.3.0,Phases=3,Linecode=CABBTG07_4_3,Length=0.017000000,Units=km
new line.RML10335063 bus1=BBT2538385.2.3.0,bus2=RML210335063.2.3.0,Phases=2,Linecode=CABBTG05_4_2,Length=0.017000000,Units=km
new line.RML10337375 bus1=BBT2329729.1.3.0,bus2=RML210337375.1.3.0,Phases=2,Linecode=CABBTG05_4_2,Length=0.017000000,Units=km
new line.RML10339572 bus1=BBT1261228.1.2.0,bus2=RML210339572.1.2.0,Phases=2,Linecode=CABBTG05_4_2,Length=0.017000000,Units=km
new line.RML10339925 bus1=BBT91263384.1.2.0,bus2=RML210339925.1.2.0,Phases=2,Linecode=CABBTG04_4_2,Length=0.017000000,Units=km
new line.RML10340021 bus1=BBT4582441.1.2.0,bus2=RML210340021.1.2.0,Phases=2,Linecode=CABBTG05_4_2,Length=0.017000000,Units=km
new line.RML10340190 bus1=BBT1238443.1.2.0,bus2=RML210340190.1.2.0,Phases=2,Linecode=CABBTG05_4_2,Length=0.017000000,Units=km
new line.RML10340192 bus1=BBT1248446.1.0,bus2=RML210340192.1.0,Phases=1,Linecode=CABBTG02_4_1,Length=0.017000000,Units=km
new line.RML10340201 bus1=BBT1216554.2.0,bus2=RML210340201.2.0,Phases=1,Linecode=CABBTG02_4_1,Length=0.017000000,Units=km
new line.RML10340572 bus1=BBT65531489.1.2.0,bus2=RML210340572.1.2.0,Phases=2,Linecode=CABBTG05_4_2,Length=0.017000000,Units=km
new line.RML10394117 bus1=BBT2329512.1.0,bus2=RML210394117.1.0,Phases=1,Linecode=CABBTG02_4_1,Length=0.017000000,Units=km
new line.RML10396784 bus1=BBT109991058.1.0,bus2=RML210396784.1.0,Phases=1,Linecode=CABBTG02_4_1,Length=0.017000000,Units=km
new line.RML10398455 bus1=BBT110019156.1.2.0,bus2=RML210398455.1.2.0,Phases=2,Linecode=CABBTG05_4_2,Length=0.017000000,Units=km
new line.RML10398547 bus1=BBT1229259.1.2.0,bus2=RML210398547.1.2.0,Phases=2,Linecode=CABBT811_4_2,Length=0.017000000,Units=km
new line.RML10398652 bus1=BBT110018295.1.2.0,bus2=RML210398652.1.2.0,Phases=2,Linecode=CABBTG05_4_2,Length=0.017000000,Units=km
new line.RML10411018 bus1=BBT150670679.1.2.0,bus2=RML210411018.1.2.0,Phases=2,Linecode=CABBT811_4_2,Length=0.017000000,Units=km
new line.RML10411031 bus1=BBT2117454.3.0,bus2=RML210411031.3.0,Phases=1,Linecode=CABBTG02_4_1,Length=0.017000000,Units=km
new line.RML10411306 bus1=BBT110046036.1.0,bus2=RML210411306.1.0,Phases=1,Linecode=CABBTG02_4_1,Length=0.017000000,Units=km
new line.RML10413019 bus1=BBT2117482.1.2.0,bus2=RML210413019.1.2.0,Phases=2,Linecode=CABBTG05_4_2,Length=0.017000000,Units=km
new line.RML10065179 bus1=BBT21408011.3.0,bus2=RML210065179.3.0,Phases=1,Linecode=CABBTG01_4_1,Length=0.017000000,Units=km
new line.RML10065180 bus1=BBT1206488.1.2.0,bus2=RML210065180.1.2.0,Phases=2,Linecode=CABBTG05_4_2,Length=0.017000000,Units=km
new line.RML10065181 bus1=BBT2116985.1.2.0,bus2=RML210065181.1.2.0,Phases=2,Linecode=CABBTG05_4_2,Length=0.017000000,Units=km
new line.RML10067557 bus1=BBT2117370.2.0,bus2=RML210067557.2.0,Phases=1,Linecode=CABBTG01_4_1,Length=0.017000000,Units=km
new line.RML10122673 bus1=BBT4582287.1.2.3.0,bus2=RML210122673.1.2.3.0,Phases=3,Linecode=CABBTG06_4_3,Length=0.006000000,Units=km
new line.RML10122770 bus1=BBT2117587.2.3.0,bus2=RML210122770.2.3.0,Phases=2,Linecode=CABBTG05_4_2,Length=0.014000000,Units=km
new line.RML10123295 bus1=BBT1229714.2.3.0,bus2=RML210123295.2.3.0,Phases=2,Linecode=CABBTG05_4_2,Length=0.017000000,Units=km
new line.RML10123304 bus1=BBT1227320.2.0,bus2=RML210123304.2.0,Phases=1,Linecode=CABBTG01_4_1,Length=0.017000000,Units=km
new line.RML10123661 bus1=BBT2117272.2.0,bus2=RML210123661.2.0,Phases=1,Linecode=CABBTG01_4_1,Length=0.016000000,Units=km
new line.RML10123966 bus1=BBT1236833.2.0,bus2=RML210123966.2.0,Phases=1,Linecode=CABBTG01_4_1,Length=0.017000000,Units=km
new line.RML10125037 bus1=BBT1237932.2.0,bus2=RML210125037.2.0,Phases=1,Linecode=CABBTG01_4_1,Length=0.017000000,Units=km
new line.RML10125749 bus1=BBT1249832.1.2.0,bus2=RML210125749.1.2.0,Phases=2,Linecode=CABBTG05_4_2,Length=0.017000000,Units=km
new line.RML10188744 bus1=BBT1226417.1.2.0,bus2=RML210188744.1.2.0,Phases=2,Linecode=CABBTG05_4_2,Length=0.008000000,Units=km
new line.RML10189252 bus1=BBT1169703.1.3.0,bus2=RML210189252.1.3.0,Phases=2,Linecode=CABBT811_4_2,Length=0.017000000,Units=km
new line.RML10189255 bus1=BBT2117552.1.0,bus2=RML210189255.1.0,Phases=1,Linecode=CABBTG02_4_1,Length=0.017000000,Units=km
new line.RML10189490 bus1=BBT1216498.3.0,bus2=RML210189490.3.0,Phases=1,Linecode=CABBTG02_4_1,Length=0.017000000,Units=km
new line.RML10192700 bus1=BBT3132643.3.0,bus2=RML210192700.3.0,Phases=1,Linecode=CABBTG02_4_1,Length=0.017000000,Units=km
new line.RML10193258 bus1=BBT65535402.1.2.0,bus2=RML210193258.1.2.0,Phases=2,Linecode=CABBTG05_4_2,Length=0.017000000,Units=km
new line.RML10255159 bus1=BBT1218290.1.0,bus2=RML210255159.1.0,Phases=1,Linecode=CABBTG02_4_1,Length=0.017000000,Units=km
new line.RML10255339 bus1=BBT148853711.1.2.0,bus2=RML210255339.1.2.0,Phases=2,Linecode=CABBTG05_4_2,Length=0.018000000,Units=km
new line.RML10258827 bus1=BBT2052431.1.2.3.0,bus2=RML210258827.1.2.3.0,Phases=3,Linecode=CABBTG06_4_3,Length=0.017000000,Units=km
new line.RML10258839 bus1=BBT110048136.1.2.0,bus2=RML210258839.1.2.0,Phases=2,Linecode=CABBTG05_4_2,Length=0.017000000,Units=km
new line.RML10258957 bus1=BBT150669547.1.3.0,bus2=RML210258957.1.3.0,Phases=2,Linecode=CABBTG05_4_2,Length=0.017000000,Units=km
new line.RML10259152 bus1=BBT3013454.2.0,bus2=RML210259152.2.0,Phases=1,Linecode=CABBTG02_4_1,Length=0.017000000,Units=km
new line.RML10330374 bus1=BBT1234383.1.2.0,bus2=RML210330374.1.2.0,Phases=2,Linecode=CABBTG05_4_2,Length=0.017000000,Units=km
new line.RML10330725 bus1=BBT1231023.1.2.3.0,bus2=RML210330725.1.2.3.0,Phases=3,Linecode=CABBTG06_4_3,Length=0.017000000,Units=km
new line.RML10330731 bus1=BBT1216638.1.2.3.0,bus2=RML210330731.1.2.3.0,Phases=3,Linecode=CABBTG06_4_3,Length=0.017000000,Units=km
new line.RML10330759 bus1=BBT65533568.1.2.0,bus2=RML210330759.1.2.0,Phases=2,Linecode=CABBTG05_4_2,Length=0.017000000,Units=km
new line.RML10331220 bus1=BBT1393087.1.3.0,bus2=RML210331220.1.3.0,Phases=2,Linecode=CABBTG05_4_2,Length=0.017000000,Units=km
new line.RML10331356 bus1=BBT1206565.1.0,bus2=RML210331356.1.0,Phases=1,Linecode=CABBTG02_4_1,Length=0.017000000,Units=km
new line.RML10331447 bus1=BBT1240690.1.2.0,bus2=RML210331447.1.2.0,Phases=2,Linecode=CABBTG05_4_2,Length=0.017000000,Units=km
new line.RML10331936 bus1=BBT1227446.1.0,bus2=RML210331936.1.0,Phases=1,Linecode=CABBTG02_4_1,Length=0.017000000,Units=km
new line.RML10333364 bus1=BBT1208798.1.2.3.0,bus2=RML210333364.1.2.3.0,Phases=3,Linecode=CABBTG06_4_3,Length=0.017000000,Units=km
new line.RML10390213 bus1=BBT2052445.1.2.3.0,bus2=RML210390213.1.2.3.0,Phases=3,Linecode=CABBTG06_4_3,Length=0.017000000,Units=km
new line.RML10392894 bus1=BBT109993039.2.0,bus2=RML210392894.2.0,Phases=1,Linecode=CABBTG02_4_1,Length=0.017000000,Units=km
new line.RML10393084 bus1=BBT1249356.1.0,bus2=RML210393084.1.0,Phases=1,Linecode=CABBTG02_4_1,Length=0.017000000,Units=km
new line.RML10461365 bus1=BBT1227201.1.2.3.0,bus2=RML210461365.1.2.3.0,Phases=3,Linecode=CABBTG07_4_3,Length=0.017000000,Units=km
new line.RML10461369 bus1=BBT1227201.1.2.3.0,bus2=RML210461369.1.2.3.0,Phases=3,Linecode=CABBTG07_4_3,Length=0.017000000,Units=km
new line.RML10345803 bus1=BBT1228713.1.0,bus2=RML210345803.1.0,Phases=1,Linecode=CABBTG02_4_1,Length=0.017000000,Units=km
new line.RML10345956 bus1=BBT65532091.1.3.0,bus2=RML210345956.1.3.0,Phases=2,Linecode=CABBTG05_4_2,Length=0.017000000,Units=km
new line.RML10345973 bus1=BBT127819512.2.0,bus2=RML210345973.2.0,Phases=1,Linecode=CABBTG02_4_1,Length=0.017000000,Units=km
new line.RML10346164 bus1=BBT1205935.1.3.0,bus2=RML210346164.1.3.0,Phases=2,Linecode=CABBTG05_4_2,Length=0.017000000,Units=km
new line.RML10346169 bus1=BBT2052683.2.0,bus2=RML210346169.2.0,Phases=1,Linecode=CABBTG02_4_1,Length=0.017000000,Units=km
new line.RML10346492 bus1=BBT2117482.2.3.0,bus2=RML210346492.2.3.0,Phases=2,Linecode=CABBTG05_4_2,Length=0.017000000,Units=km
new line.RML10346560 bus1=BBT2117923.1.2.0,bus2=RML210346560.1.2.0,Phases=2,Linecode=CABBTG05_4_2,Length=0.017000000,Units=km
new line.RML10346906 bus1=BBT2117587.1.0,bus2=RML210346906.1.0,Phases=1,Linecode=CABBTG02_4_1,Length=0.017000000,Units=km
new line.RML10348390 bus1=BBT4582161.1.2.3.0,bus2=RML210348390.1.2.3.0,Phases=3,Linecode=CABBTG07_4_3,Length=0.017000000,Units=km