new load.3000605480M1 bus1=RML1051850411.2.0,Phases=1,kv=0.12,kW=0.57296,pf=0.92,Vminpu=0.92,Vmaxpu=1.5,model=1,daily=RES2_10,status=variable
new load.3000605506M1 bus1=RML1051850348.1.0,Phases=1,kv=0.12,kW=0.42902,pf=0.92,Vminpu=0.92,Vmaxpu=1.5,model=1,daily=RES1_10,status=variable
new load.3000605507M1 bus1=RML1051850334.1.0,Phases=1,kv=0.12,kW=0.1783,pf=0.92,Vminpu=0.92,Vmaxpu=1.5,model=1,daily=RES1_10,status=variable
new load.3000605509M1 bus1=RML1051850264.2.0,Phases=1,kv=0.12,kW=0.25316,pf=0.92,Vminpu=0.92,Vmaxpu=1.5,model=1,daily=RES2_10,status=variable
new load.3000605510M1 bus1=RML1051850257.2.0,Phases=1,kv=0.12,kW=0.35658,pf=0.92,Vminpu=0.92,Vmaxpu=1.5,model=1,daily=RES1_10,status=variable
new load.3000605511M1 bus1=RML1051850201.1.0,Phases=1,kv=0.12,kW=1.09928,pf=0.92,Vminpu=0.92,Vmaxpu=1.5,model=1,daily=RES2_10,status=variable
new load.3000605512M1 bus1=RML1051850215.1.0,Phases=1,kv=0.12,kW=0.7795,pf=0.92,Vminpu=0.92,Vmaxpu=1.5,model=1,daily=RES2_10,status=variable
new load.3000605513M1 bus1=RML1051850215.1.0,Phases=1,kv=0.12,kW=0.51966,pf=0.92,Vminpu=0.92,Vmaxpu=1.5,model=1,daily=RES2_10,status=variable
new load.3000605514M1 bus1=RML1051850208.2.0,Phases=1,kv=0.12,kW=0.4513,pf=0.92,Vminpu=0.92,Vmaxpu=1.5,model=1,daily=RES1_10,status=variable
new load.3000605515M1 bus1=RML1051850236.2.0,Phases=1,kv=0.12,kW=0.53298,pf=0.92,Vminpu=0.92,Vmaxpu=1.5,model=1,daily=RES2_10,status=variable
new load.3000605516M1 bus1=RML1051850243.1.2.0,Phases=2,kv=0.24,kW=0.38444,pf=0.92,Vminpu=0.92,Vmaxpu=1.5,model=1,daily=RES1_10,status=variable
new load.3000605517M1 bus1=RML1051850187.1.0,Phases=1,kv=0.12,kW=0.47302,pf=0.92,Vminpu=0.92,Vmaxpu=1.5,model=1,daily=RES2_10,status=variable
new load.3000605518M1 bus1=RML1051850194.2.0,Phases=1,kv=0.12,kW=0.79282,pf=0.92,Vminpu=0.92,Vmaxpu=1.5,model=1,daily=RES2_10,status=variable
new load.3000605519M1 bus1=RML1051850180.1.2.0,Phases=2,kv=0.24,kW=0.30644,pf=0.92,Vminpu=0.92,Vmaxpu=1.5,model=1,daily=RES1_10,status=variable
new load.3000605520M1 bus1=RML1051850222.1.2.0,Phases=2,kv=0.24,kW=0.57962,pf=0.92,Vminpu=0.92,Vmaxpu=1.5,model=1,daily=RES2_10,status=variable
new load.3000605521M1 bus1=RML1051850229.1.2.0,Phases=2,kv=0.24,kW=0.30086,pf=0.92,Vminpu=0.92,Vmaxpu=1.5,model=1,daily=RES1_10,status=variable
new load.3000605527M1 bus1=RML1051850271.1.0,Phases=1,kv=0.12,kW=0.85944,pf=0.92,Vminpu=0.92,Vmaxpu=1.5,model=1,daily=RES2_10,status=variable
new load.3000605528M1 bus1=RML1051850341.2.0,Phases=1,kv=0.12,kW=0.35658,pf=0.92,Vminpu=0.92,Vmaxpu=1.5,model=1,daily=RES1_10,status=variable
new load.3000605529M1 bus1=RML1051850327.1.2.0,Phases=2,kv=0.24,kW=1.28582,pf=0.92,Vminpu=0.92,Vmaxpu=1.5,model=1,daily=RES2_10,status=variable
new load.3000605578M1 bus1=RML1051865517.2.0,Phases=1,kv=0.127,kW=0.6196,pf=0.92,Vminpu=0.92,Vmaxpu=1.5,model=1,daily=RES2_10,status=variable
new load.3000605579M1 bus1=RML1051865524.1.3.0,Phases=2,kv=0.22,kW=0.90608,pf=0.92,Vminpu=0.92,Vmaxpu=1.5,model=1,daily=RES2_10,status=variable
new load.3000605580M1 bus1=RML1051880406.1.3.0,Phases=2,kv=0.22,kW=0.6009,pf=0.92,Vminpu=0.92,Vmaxpu=1.5,model=1,daily=RUR2_16,status=variable
new load.3000605581M1 bus1=RML1051880413.1.3.0,Phases=2,kv=0.22,kW=0.195,pf=0.92,Vminpu=0.92,Vmaxpu=1.5,model=1,daily=RES1_10,status=variable
new load.3000605583M1 bus1=RML1051880392.1.2.3.0,Phases=3,kv=0.22,kW=0.61294,pf=0.92,Vminpu=0.92,Vmaxpu=1.5,model=1,daily=RES2_10,status=variable
new load.3000605585M1 bus1=RML1051865559.1.0,Phases=1,kv=0.127,kW=0.80682,pf=0.92,Vminpu=0.92,Vmaxpu=1.5,model=1,daily=RES3_11,status=variable
new load.3000605588M1 bus1=RML1051865608.1.2.0,Phases=2,kv=0.22,kW=0.49586,pf=0.92,Vminpu=0.92,Vmaxpu=1.5,model=1,daily=RES1_10,status=variable
new load.3000605482M1 bus1=RML1051843572.1.0,Phases=1,kv=0.12,kW=0.02228,pf=0.92,Vminpu=0.92,Vmaxpu=1.5,model=1,daily=RES1_10,status=variable
new load.3000605484M1 bus1=RML1051843565.1.0,Phases=1,kv=0.12,kW=1.2377,pf=0.92,Vminpu=0.92,Vmaxpu=1.5,model=1,daily=RES3_11,status=variable
new load.3000605485M1 bus1=RML1051843460.1.0,Phases=1,kv=0.12,kW=0.95938,pf=0.92,Vminpu=0.92,Vmaxpu=1.5,model=1,daily=RES2_10,status=variable
new load.3000605486M1 bus1=RML1051843474.2.0,Phases=1,kv=0.12,kW=0.69954,pf=0.92,Vminpu=0.92,Vmaxpu=1.5,model=1,daily=RES2_10,status=variable
new load.3000605487M1 bus1=RML1051843481.1.0,Phases=1,kv=0.12,kW=0.30086,pf=0.92,Vminpu=0.92,Vmaxpu=1.5,model=1,daily=RES1_10,status=variable
new load.3000605489M1 bus1=RML1051843467.1.2.0,Phases=2,kv=0.24,kW=1.5099,pf=0.92,Vminpu=0.92,Vmaxpu=1.5,model=1,daily=RES1_10,status=variable
new load.3000605490M1 bus1=RML1051843446.2.0,Phases=1,kv=0.12,kW=0.22844,pf=0.92,Vminpu=0.92,Vmaxpu=1.5,model=1,daily=RES1_10,status=variable
new load.3000605491M1 bus1=RML1051843418.2.0,Phases=1,kv=0.12,kW=0.46802,pf=0.92,Vminpu=0.92,Vmaxpu=1.5,model=1,daily=RES1_10,status=variable
new load.3000605492M1 bus1=RML1051843425.1.0,Phases=1,kv=0.12,kW=0.88286,pf=0.92,Vminpu=0.92,Vmaxpu=1.5,model=1,daily=RES3_11,status=variable
new load.3000605493M1 bus1=RML1051843558.2.0,Phases=1,kv=0.12,kW=0.55964,pf=0.92,Vminpu=0.92,Vmaxpu=1.5,model=1,daily=RES2_10,status=variable
new load.3000605494M1 bus1=RML1051843544.2.0,Phases=1,kv=0.12,kW=0.36772,pf=0.92,Vminpu=0.92,Vmaxpu=1.5,model=1,daily=RES1_10,status=variable
new load.3000605496M1 bus1=RML1051843509.2.0,Phases=1,kv=0.12,kW=0.39558,pf=0.92,Vminpu=0.92,Vmaxpu=1.5,model=1,daily=RES1_10,status=variable
new load.3000605499M1 bus1=RML1051843502.1.2.0,Phases=2,kv=0.24,kW=0.15044,pf=0.92,Vminpu=0.92,Vmaxpu=1.5,model=1,daily=RES1_10,status=variable
new load.3000605500M1 bus1=RML1051843523.1.0,Phases=1,kv=0.12,kW=0.2953,pf=0.92,Vminpu=0.92,Vmaxpu=1.5,model=1,daily=RES1_10,status=variable
new load.3000605501M1 bus1=RML1051843537.1.2.0,Phases=2,kv=0.24,kW=0.351,pf=0.92,Vminpu=0.92,Vmaxpu=1.5,model=1,daily=RES1_10,status=variable
new load.3000605502M1 bus1=RML1051843551.1.0,Phases=1,kv=0.12,kW=0.59294,pf=0.92,Vminpu=0.92,Vmaxpu=1.5,model=1,daily=RES2_10,status=variable
new load.3000605503M1 bus1=RML1051843593.1.0,Phases=1,kv=0.12,kW=0.45686,pf=0.92,Vminpu=0.92,Vmaxpu=1.5,model=1,daily=RES1_10,status=variable
new load.3000605549M1 bus1=RML1051843628.2.0,Phases=1,kv=0.127,kW=0.4665,pf=0.92,Vminpu=0.92,Vmaxpu=1.5,model=1,daily=RUR1_15,status=variable
new load.3000605550M1 bus1=RML1051843642.1.2.0,Phases=2,kv=0.22,kW=0.9928,pf=0.92,Vminpu=0.92,Vmaxpu=1.5,model=1,daily=RUR2_16,status=variable
new load.3000605551M1 bus1=RML1051843677.1.2.0,Phases=2,kv=0.22,kW=0.87942,pf=0.92,Vminpu=0.92,Vmaxpu=1.5,model=1,daily=RES2_10,status=variable
new load.3000605554M1 bus1=RML1051843600.1.2.3.0,Phases=3,kv=0.22,kW=4.28488,pf=0.92,Vminpu=0.92,Vmaxpu=1.5,model=1,daily=RUR4_11,status=variable
new load.3000605555M1 bus1=RML1051843621.2.3.0,Phases=2,kv=0.22,kW=1.27572,pf=0.92,Vminpu=0.92,Vmaxpu=1.5,model=1,daily=RES3_11,status=variable
new load.3000605556M1 bus1=RML1051843614.1.0,Phases=1,kv=0.127,kW=0.40116,pf=0.92,Vminpu=0.92,Vmaxpu=1.5,model=1,daily=RES1_10,status=variable
new load.3000605561M1 bus1=RML1051843635.1.2.0,Phases=2,kv=0.22,kW=0.57296,pf=0.92,Vminpu=0.92,Vmaxpu=1.5,model=1,daily=RES2_10,status=variable
new load.3000605531M1 bus1=RML1051850432.2.0,Phases=1,kv=0.12,kW=0.8661,pf=0.92,Vminpu=0.92,Vmaxpu=1.5,model=1,daily=RES2_10,status=variable
new load.3000605532M1 bus1=RML1051850418.2.0,Phases=1,kv=0.12,kW=0.83946,pf=0.92,Vminpu=0.92,Vmaxpu=1.5,model=1,daily=RES2_10,status=variable
new load.3000605533M1 bus1=RML1051850516.1.2.0,Phases=2,kv=0.24,kW=0.69954,pf=0.92,Vminpu=0.92,Vmaxpu=1.5,model=1,daily=RES2_10,status=variable
new load.3000605534M1 bus1=RML1051850502.2.0,Phases=1,kv=0.12,kW=0.49302,pf=0.92,Vminpu=0.92,Vmaxpu=1.5,model=1,daily=RES2_10,status=variable
new load.3000605536M1 bus1=RML1051850481.1.0,Phases=1,kv=0.12,kW=0.2953,pf=0.92,Vminpu=0.92,Vmaxpu=1.5,model=1,daily=RES1_10,status=variable
new load.3000605537M1 bus1=RML1051850474.2.0,Phases=1,kv=0.12,kW=0.3733,pf=0.92,Vminpu=0.92,Vmaxpu=1.5,model=1,daily=RES1_10,status=variable
new load.3000605538M1 bus1=RML1051850439.1.0,Phases=1,kv=0.12,kW=0.87018,pf=0.92,Vminpu=0.92,Vmaxpu=1.5,model=1,daily=RES3_11,status=variable
new load.3000605539M1 bus1=RML1051850446.1.0,Phases=1,kv=0.12,kW=0.46802,pf=0.92,Vminpu=0.92,Vmaxpu=1.5,model=1,daily=RES1_10,status=variable
new load.3000605540M1 bus1=RML1051850453.2.0,Phases=1,kv=0.12,kW=0.90608,pf=0.92,Vminpu=0.92,Vmaxpu=1.5,model=1,daily=RES2_10,status=variable
new load.3000605541M1 bus1=RML1051850460.1.0,Phases=1,kv=0.12,kW=0.7795,pf=0.92,Vminpu=0.92,Vmaxpu=1.5,model=1,daily=RES2_10,status=variable
new load.3000605545M1 bus1=RML1051850404.1.0,Phases=1,kv=0.12,kW=0.23958,pf=0.92,Vminpu=0.92,Vmaxpu=1.5,model=1,daily=RES1_10,status=variable
new load.3000605546M1 bus1=RML1051850362.2.0,Phases=1,kv=0.12,kW=0.44016,pf=0.92,Vminpu=0.92,Vmaxpu=1.5,model=1,daily=RES1_10,status=variable
new load.3000605547M1 bus1=RML1051850369.1.0,Phases=1,kv=0.12,kW=0.60828,pf=0.92,Vminpu=0.92,Vmaxpu=1.5,model=1,daily=RES3_11,status=variable
new load.3000605505M1 bus1=RML1051850355.1.0,Phases=1,kv=0.12,kW=1.02648,pf=0.92,Vminpu=0.92,Vmaxpu=1.5,model=1,daily=RES3_11,status=variable
new load.3000605522M1 bus1=RML1051850313.1.0,Phases=1,kv=0.12,kW=0.85944,pf=0.92,Vminpu=0.92,Vmaxpu=1.5,model=1,daily=RES2_10,status=variable
new load.3000605523M1 bus1=RML1051850299.2.0,Phases=1,kv=0.12,kW=0.5663,pf=0.92,Vminpu=0.92,Vmaxpu=1.5,model=1,daily=RES2_10,status=variable
new load.3000605524M1 bus1=RML1060753050.2.0,Phases=1,kv=0.12,kW=0.312,pf=0.92,Vminpu=0.92,Vmaxpu=1.5,model=1,daily=RES1_10,status=variable
new load.3000605525M1 bus1=RML1051850306.2.0,Phases=1,kv=0.12,kW=0.22286,pf=0.92,Vminpu=0.92,Vmaxpu=1.5,model=1,daily=RES1_10,status=variable
new load.3000605477M1 bus1=RML1051850488.2.0,Phases=1,kv=0.12,kW=0.93938,pf=0.92,Vminpu=0.92,Vmaxpu=1.5,model=1,daily=RES2_10,status=variable
new load.3000605478M1 bus1=RML1051850509.1.0,Phases=1,kv=0.12,kW=0.65898,pf=0.92,Vminpu=0.92,Vmaxpu=1.5,model=1,daily=RES3_11,status=variable
new load.3000605479M1 bus1=RML1051850425.1.0,Phases=1,kv=0.12,kW=0.7062,pf=0.92,Vminpu=0.92,Vmaxpu=1.5,model=1,daily=RES2_10,status=variable
new load.3000605465M1 bus1=RML1051850376.1.2.0,Phases=2,kv=0.24,kW=0.2347,pf=0.92,Vminpu=0.92,Vmaxpu=1.5,model=1,daily=COM1_15,status=variable
new load.3000605466M1 bus1=RML1051850495.2.0,Phases=1,kv=0.12,kW=0.66624,pf=0.92,Vminpu=0.92,Vmaxpu=1.5,model=1,daily=RES2_10,status=variable
new load.3000605428M1 bus1=RML1051855458.1.3.0,Phases=2,kv=0.22,kW=0.9758,pf=0.92,Vminpu=0.92,Vmaxpu=1.5,model=1,daily=RES3_11,status=variable
new load.3000605429M1 bus1=RML1051855451.2.3.0,Phases=2,kv=0.22,kW=0.55298,pf=0.92,Vminpu=0.92,Vmaxpu=1.5,model=1,daily=RES2_10,status=variable
new load.3000605430M1 bus1=RML1051855444.3.0,Phases=1,kv=0.127,kW=0.51958,pf=0.92,Vminpu=0.92,Vmaxpu=1.5,model=1,daily=RES3_11,status=variable
new load.3000605431M1 bus1=RML1051855437.3.0,Phases=1,kv=0.127,kW=0.78616,pf=0.92,Vminpu=0.92,Vmaxpu=1.5,model=1,daily=RES2_10,status=variable
new load.3000605432M1 bus1=RML1051855500.1.0,Phases=1,kv=0.127,kW=0.79044,pf=0.92,Vminpu=0.92,Vmaxpu=1.5,model=1,daily=RES4_12,status=variable
new load.3000605433M1 bus1=RML1051855514.3.0,Phases=1,kv=0.127,kW=0.20058,pf=0.92,Vminpu=0.92,Vmaxpu=1.5,model=1,daily=RES1_10,status=variable
new load.3000605434M1 bus1=RML1051855591.1.2.0,Phases=2,kv=0.22,kW=0.87276,pf=0.92,Vminpu=0.92,Vmaxpu=1.5,model=1,daily=RES2_10,status=variable
new load.3000605435M1 bus1=RML1051855598.2.3.0,Phases=2,kv=0.22,kW=0.70934,pf=0.92,Vminpu=0.92,Vmaxpu=1.5,model=1,daily=COM1_15,status=variable
new load.3000605438M1 bus1=RML1051855577.1.2.3.0,Phases=3,kv=0.22,kW=4.68012,pf=0.92,Vminpu=0.92,Vmaxpu=1.5,model=1,daily=RES1_10,status=variable
new load.3000605448M1 bus1=RML1051855542.1.2.3.0,Phases=3,kv=0.22,kW=1.32576,pf=0.92,Vminpu=0.92,Vmaxpu=1.5,model=1,daily=RES4_12,status=variable
new load.3000605450M1 bus1=RML1051855479.1.0,Phases=1,kv=0.127,kW=0.6529,pf=0.92,Vminpu=0.92,Vmaxpu=1.5,model=1,daily=RES2_10,status=variable
new load.3000080469M1 bus1=RML1051855654.2.0,Phases=1,kv=0.127,kW=0.39946,pf=0.92,Vminpu=0.92,Vmaxpu=1.5,model=1,daily=RES1_1,status=variable
new load.3000080471M1 bus1=RML1051855528.1.0,Phases=1,kv=0.127,kW=0.78016,pf=0.92,Vminpu=0.92,Vmaxpu=1.5,model=1,daily=RES2_2,status=variable
new load.3000080472M1 bus1=RML1051855640.1.0,Phases=1,kv=0.127,kW=0.63074,pf=0.92,Vminpu=0.92,Vmaxpu=1.5,model=1,daily=RES1_1,status=variable
new load.3000080473M1 bus1=RML1051855626.2.0,Phases=1,kv=0.127,kW=0.773,pf=0.92,Vminpu=0.92,Vmaxpu=1.5,model=1,daily=RES2_2,status=variable
new load.3000080474M1 bus1=RML1051855647.1.3.0,Phases=2,kv=0.22,kW=1.13086,pf=0.92,Vminpu=0.92,Vmaxpu=1.5,model=1,daily=RES2_2,status=variable
new load.3000080475M1 bus1=RML1051855647.1.3.0,Phases=2,kv=0.22,kW=0.64416,pf=0.92,Vminpu=0.92,Vmaxpu=1.5,model=1,daily=RES2_2,status=variable
new load.3000605630M1 bus1=RML1051855535.1.2.0,Phases=2,kv=0.22,kW=0.88286,pf=0.92,Vminpu=0.92,Vmaxpu=1.5,model=1,daily=RES3_11,status=variable
new load.3000605631M1 bus1=RML1051855549.1.2.3.0,Phases=3,kv=0.22,kW=0.04172,pf=0.92,Vminpu=0.92,Vmaxpu=1.5,model=1,daily=COM1_15,status=variable
new load.3000605632M1 bus1=RML1051855556.1.2.0,Phases=2,kv=0.22,kW=0.62626,pf=0.92,Vminpu=0.92,Vmaxpu=1.5,model=1,daily=RES2_10,status=variable
new load.3000605635M1 bus1=RML1051855619.1.2.0,Phases=2,kv=0.22,kW=0.71316,pf=0.92,Vminpu=0.92,Vmaxpu=1.5,model=1,daily=RES1_10,status=variable
new load.3000605636M1 bus1=RML1051855584.2.3.0,Phases=2,kv=0.22,kW=0.91242,pf=0.92,Vminpu=0.92,Vmaxpu=1.5,model=1,daily=RES3_11,status=variable
new load.3000605637M1 bus1=RML1051855507.2.0,Phases=1,kv=0.127,kW=1.01934,pf=0.92,Vminpu=0.92,Vmaxpu=1.5,model=1,daily=RES2_10,status=variable
new load.3000605639M1 bus1=RML1051856508.1.2.0,Phases=2,kv=0.22,kW=0.32872,pf=0.92,Vminpu=0.92,Vmaxpu=1.5,model=1,daily=RES1_10,status=variable
new load.3000605640M1 bus1=RML1051856501.2.0,Phases=1,kv=0.127,kW=0.73924,pf=0.92,Vminpu=0.92,Vmaxpu=1.5,model=1,daily=RES3_11,status=variable
new load.3000605641M1 bus1=RML1051856487.1.0,Phases=1,kv=0.127,kW=0.74618,pf=0.92,Vminpu=0.92,Vmaxpu=1.5,model=1,daily=RES2_10,status=variable
new load.3000605642M1 bus1=RML1051856494.1.2.0,Phases=2,kv=0.22,kW=0.95938,pf=0.92,Vminpu=0.92,Vmaxpu=1.5,model=1,daily=RES2_10,status=variable
new load.3000605644M1 bus1=RML1051856445.2.3.0,Phases=2,kv=0.22,kW=0.99268,pf=0.92,Vminpu=0.92,Vmaxpu=1.5,model=1,daily=RES2_10,status=variable
new load.3000605646M1 bus1=RML1051856522.2.3.0,Phases=2,kv=0.22,kW=0.60828,pf=0.92,Vminpu=0.92,Vmaxpu=1.5,model=1,daily=RES3_11,status=variable
new load.3000605647M1 bus1=RML1051856529.2.3.0,Phases=2,kv=0.22,kW=1.01268,pf=0.92,Vminpu=0.92,Vmaxpu=1.5,model=1,daily=RES2_10,status=variable
new load.3000605650M1 bus1=RML1051863557.1.2.3.0,Phases=3,kv=0.22,kW=4.86484,pf=0.92,Vminpu=0.92,Vmaxpu=1.5,model=1,daily=COM3_12,status=variable
new load.3000605651M1 bus1=RML1051863557.1.2.3.0,Phases=3,kv=0.22,kW=1.10594,pf=0.92,Vminpu=0.92,Vmaxpu=1.5,model=1,daily=RES2_10,status=variable
new load.3000605653M1 bus1=RML1051856550.2.3.0,Phases=2,kv=0.22,kW=0.77304,pf=0.92,Vminpu=0.92,Vmaxpu=1.5,model=1,daily=RES3_11,status=variable
new load.3000605656M1 bus1=RML1051856480.2.3.0,Phases=2,kv=0.22,kW=0.63958,pf=0.92,Vminpu=0.92,Vmaxpu=1.5,model=1,daily=RES2_10,status=variable
new load.3000605657M1 bus1=RML1051856473.1.2.0,Phases=2,kv=0.22,kW=0.90398,pf=0.92,Vminpu=0.92,Vmaxpu=1.5,model=1,daily=RES3_11,status=variable
new load.3000605658M1 bus1=RML1051856459.1.2.0,Phases=2,kv=0.22,kW=0.96734,pf=0.92,Vminpu=0.92,Vmaxpu=1.5,model=1,daily=RES3_11,status=variable
new load.3000605659M1 bus1=RML1051856403.2.0,Phases=1,kv=0.127,kW=0.42638,pf=0.92,Vminpu=0.92,Vmaxpu=1.5,model=1,daily=RES2_10,status=variable
new load.3000605633M1 bus1=RML1051856585.1.2.0,Phases=2,kv=0.22,kW=0.95272,pf=0.92,Vminpu=0.92,Vmaxpu=1.5,model=1,daily=RES2_10,status=variable
new load.3000605662M1 bus1=RML1051856417.1.2.3.0,Phases=3,kv=0.22,kW=3.8656,pf=0.92,Vminpu=0.92,Vmaxpu=1.5,model=1,daily=COM3_12,status=variable
new load.3000605405M1 bus1=RML1051856410.1.3.0,Phases=2,kv=0.22,kW=1.4136,pf=0.92,Vminpu=0.92,Vmaxpu=1.5,model=1,daily=RES4_12,status=variable
new load.3000605406M1 bus1=RML1051856466.2.3.0,Phases=2,kv=0.22,kW=0.9251,pf=0.92,Vminpu=0.92,Vmaxpu=1.5,model=1,daily=RES3_11,status=variable
new load.3000605407M1 bus1=RML1051856452.1.0,Phases=1,kv=0.127,kW=0.7262,pf=0.92,Vminpu=0.92,Vmaxpu=1.5,model=1,daily=RES2_10,status=variable
new load.3000605415M1 bus1=RML1051856431.1.0,Phases=1,kv=0.127,kW=1.3248,pf=0.92,Vminpu=0.92,Vmaxpu=1.5,model=1,daily=COM1_15,status=variable
new load.3000605416M1 bus1=RML1051856424.1.0,Phases=1,kv=0.127,kW=0.8606,pf=0.92,Vminpu=0.92,Vmaxpu=1.5,model=1,daily=COM1_15,status=variable
new load.3000605665M1 bus1=RML1051857432.1.2.3.0,Phases=3,kv=0.22,kW=5.88,pf=0.92,Vminpu=0.92,Vmaxpu=1.5,model=1,daily=COM3_12,status=variable
new load.3000605670M1 bus1=RML1051857453.1.2.3.0,Phases=3,kv=0.22,kW=1.08764,pf=0.92,Vminpu=0.92,Vmaxpu=1.5,model=1,daily=IND1_16,status=variable
new load.3000605397M1 bus1=RML1051857670.1.0,Phases=1,kv=0.127,kW=0.78236,pf=0.92,Vminpu=0.92,Vmaxpu=1.5,model=1,daily=COM1_15,status=variable
new load.3000605594M1 bus1=RML1051843516.2.0,Phases=1,kv=0.12,kW=0.2347,pf=0.92,Vminpu=0.92,Vmaxpu=1.5,model=1,daily=COM1_15,status=variable
new load.3000605685M1 bus1=RML1051858713.2.0,Phases=1,kv=0.127,kW=0.87276,pf=0.92,Vminpu=0.92,Vmaxpu=1.5,model=1,daily=RES2_10,status=variable
new load.3000605686M1 bus1=RML1051858615.3.0,Phases=1,kv=0.127,kW=0.38444,pf=0.92,Vminpu=0.92,Vmaxpu=1.5,model=1,daily=RES1_10,status=variable
new load.3000605687M1 bus1=RML1060069841.1.2.0,Phases=2,kv=0.22,kW=1.14054,pf=0.92,Vminpu=0.92,Vmaxpu=1.5,model=1,daily=RES3_11,status=variable
new load.3000605690M1 bus1=RML1051858657.2.0,Phases=1,kv=0.127,kW=0.7262,pf=0.92,Vminpu=0.92,Vmaxpu=1.5,model=1,daily=RES2_10,status=variable
new load.3000605691M1 bus1=RML1051858643.1.0,Phases=1,kv=0.127,kW=0.98602,pf=0.92,Vminpu=0.92,Vmaxpu=1.5,model=1,daily=RES2_10,status=variable
new load.3000605709M1 bus1=RML1051858685.1.2.3.0,Phases=3,kv=0.22,kW=1.026,pf=0.92,Vminpu=0.92,Vmaxpu=1.5,model=1,daily=RES2_10,status=variable
new load.3000605710M1 bus1=RML1051858685.1.2.3.0,Phases=3,kv=0.22,kW=1.14592,pf=0.92,Vminpu=0.92,Vmaxpu=1.5,model=1,daily=RES2_10,status=variable
new load.3000605712M1 bus1=RML1051858650.2.0,Phases=1,kv=0.127,kW=0.50634,pf=0.92,Vminpu=0.92,Vmaxpu=1.5,model=1,daily=RES2_10,status=variable
new load.3000605714M1 bus1=RML1051858664.3.0,Phases=1,kv=0.127,kW=0.58628,pf=0.92,Vminpu=0.92,Vmaxpu=1.5,model=1,daily=RES2_10,status=variable
new load.3000605718M1 bus1=RML1051858482.3.0,Phases=1,kv=0.127,kW=1.04338,pf=0.92,Vminpu=0.92,Vmaxpu=1.5,model=1,daily=RES3_11,status=variable
new load.3000605719M1 bus1=RML1051858496.1.0,Phases=1,kv=0.127,kW=0.62626,pf=0.92,Vminpu=0.92,Vmaxpu=1.5,model=1,daily=RES2_10,status=variable
new load.3000605721M1 bus1=RML1051858510.2.0,Phases=1,kv=0.127,kW=0.4123,pf=0.92,Vminpu=0.92,Vmaxpu=1.5,model=1,daily=RES1_10,status=variable
new load.3000605722M1 bus1=RML1051858524.1.2.3.0,Phases=3,kv=0.22,kW=0.43306,pf=0.92,Vminpu=0.92,Vmaxpu=1.5,model=1,daily=RES2_10,status=variable
new load.3000605723M1 bus1=RML1051858440.1.3.0,Phases=2,kv=0.22,kW=0.22844,pf=0.92,Vminpu=0.92,Vmaxpu=1.5,model=1,daily=RES1_10,status=variable
new load.3000605724M1 bus1=RML1051858447.3.0,Phases=1,kv=0.127,kW=0.6463,pf=0.92,Vminpu=0.92,Vmaxpu=1.5,model=1,daily=RES3_11,status=variable
new load.3000605725M1 bus1=RML1051858447.3.0,Phases=1,kv=0.127,kW=0.67956,pf=0.92,Vminpu=0.92,Vmaxpu=1.5,model=1,daily=RES2_10,status=variable
new load.3000605726M1 bus1=RML1051858377.3.0,Phases=1,kv=0.127,kW=0.41786,pf=0.92,Vminpu=0.92,Vmaxpu=1.5,model=1,daily=RES1_10,status=variable
new load.3000605727M1 bus1=RML1051858300.3.0,Phases=1,kv=0.127,kW=0.33986,pf=0.92,Vminpu=0.92,Vmaxpu=1.5,model=1,daily=RES1_10,status=variable
new load.3000605728M1 bus1=RML1051858293.3.0,Phases=1,kv=0.127,kW=1.0476,pf=0.92,Vminpu=0.92,Vmaxpu=1.5,model=1,daily=RES3_11,status=variable
new load.3000080470M1 bus1=RML1051860414.3.0,Phases=1,kv=0.127,kW=0.10512,pf=0.92,Vminpu=0.92,Vmaxpu=1.5,model=1,daily=RES1_1,status=variable
new load.3000080482M1 bus1=RML1051861870.3.0,Phases=1,kv=0.127,kW=0.67996,pf=0.92,Vminpu=0.92,Vmaxpu=1.5,model=1,daily=RES2_2,status=variable
new load.3000080483M1 bus1=RML1051861849.2.3.0,Phases=2,kv=0.22,kW=2.01692,pf=0.92,Vminpu=0.92,Vmaxpu=1.5,model=1,daily=RES5_3,status=variable
new load.3000080484M1 bus1=RML1051861891.3.0,Phases=1,kv=0.127,kW=0.5992,pf=0.92,Vminpu=0.92,Vmaxpu=1.5,model=1,daily=RES1_1,status=variable
new load.3000080485M1 bus1=RML1051861898.1.2.0,Phases=2,kv=0.22,kW=0.71574,pf=0.92,Vminpu=0.92,Vmaxpu=1.5,model=1,daily=RES2_2,status=variable
new load.3000080486M1 bus1=RML1051861856.3.0,Phases=1,kv=0.127,kW=0.42944,pf=0.92,Vminpu=0.92,Vmaxpu=1.5,model=1,daily=RES2_2,status=variable
new load.3000080487M1 bus1=RML1051861863.2.0,Phases=1,kv=0.127,kW=0.31536,pf=0.92,Vminpu=0.92,Vmaxpu=1.5,model=1,daily=RES1_1,status=variable
new load.3000080488M1 bus1=RML1051861919.2.3.0,Phases=2,kv=0.22,kW=0.6227,pf=0.92,Vminpu=0.92,Vmaxpu=1.5,model=1,daily=RES2_2,status=variable
new load.3000080490M1 bus1=RML1051861905.1.2.3.0,Phases=3,kv=0.22,kW=0.20016,pf=0.92,Vminpu=0.92,Vmaxpu=1.5,model=1,daily=COM1_4,status=variable
new load.3000080491M1 bus1=RML1051861912.1.2.3.0,Phases=3,kv=0.22,kW=0.0719,pf=0.92,Vminpu=0.92,Vmaxpu=1.5,model=1,daily=COM1_4,status=variable
new load.3000080468M1 bus1=RML1051861786.1.2.0,Phases=2,kv=0.22,kW=0.79446,pf=0.92,Vminpu=0.92,Vmaxpu=1.5,model=1,daily=RES2_2,status=variable
new load.3000605618M1 bus1=RML1051861877.2.3.0,Phases=2,kv=0.22,kW=0.88708,pf=0.92,Vminpu=0.92,Vmaxpu=1.5,model=1,daily=RES3_11,status=variable
new load.3000605620M1 bus1=RML1051861814.1.2.0,Phases=2,kv=0.22,kW=0.48634,pf=0.92,Vminpu=0.92,Vmaxpu=1.5,model=1,daily=RES2_10,status=variable
new load.3000605621M1 bus1=RML1051861814.1.2.0,Phases=2,kv=0.22,kW=0.69288,pf=0.92,Vminpu=0.92,Vmaxpu=1.5,model=1,daily=RES2_10,status=variable
new load.3000605624M1 bus1=RML1051861751.2.3.0,Phases=2,kv=0.22,kW=0.64778,pf=0.92,Vminpu=0.92,Vmaxpu=1.5,model=1,daily=IND1_16,status=variable
new load.3000605626M1 bus1=RML1051861758.1.2.0,Phases=2,kv=0.22,kW=0.13928,pf=0.92,Vminpu=0.92,Vmaxpu=1.5,model=1,daily=RES1_10,status=variable
new load.3000605627M1 bus1=RML1051861737.2.3.0,Phases=2,kv=0.22,kW=1.89332,pf=0.92,Vminpu=0.92,Vmaxpu=1.5,model=1,daily=COM1_15,status=variable
new load.3000605628M1 bus1=RML1051861730.2.0,Phases=1,kv=0.127,kW=0.79282,pf=0.92,Vminpu=0.92,Vmaxpu=1.5,model=1,daily=RES2_10,status=variable
new load.3000605596M1 bus1=RML1051855486.1.2.3.0,Phases=3,kv=0.22,kW=0.92932,pf=0.92,Vminpu=0.92,Vmaxpu=1.5,model=1,daily=RES3_11,status=variable
new load.3000605598M1 bus1=RML1051861765.3.0,Phases=1,kv=0.127,kW=0.8128,pf=0.92,Vminpu=0.92,Vmaxpu=1.5,model=1,daily=RES2_10,status=variable
new load.3000605599M1 bus1=RML1051861779.1.0,Phases=1,kv=0.127,kW=0.83946,pf=0.92,Vminpu=0.92,Vmaxpu=1.5,model=1,daily=RES2_10,status=variable
new load.3000605600M1 bus1=RML1051861835.2.0,Phases=1,kv=0.127,kW=0.26744,pf=0.92,Vminpu=0.92,Vmaxpu=1.5,model=1,daily=RES1_10,status=variable
new load.3000605601M1 bus1=RML1051861842.3.0,Phases=1,kv=0.127,kW=0.8128,pf=0.92,Vminpu=0.92,Vmaxpu=1.5,model=1,daily=RES2_10,status=variable
new load.3000605602M1 bus1=RML1051861821.1.2.3.0,Phases=3,kv=0.22,kW=1.84976,pf=0.92,Vminpu=0.92,Vmaxpu=1.5,model=1,daily=RES1_10,status=variable
new load.3000605603M1 bus1=RML1051861884.1.0,Phases=1,kv=0.127,kW=0.80614,pf=0.92,Vminpu=0.92,Vmaxpu=1.5,model=1,daily=RES2_10,status=variable
new load.3000605664M1 bus1=RML1051862731.1.2.3.0,Phases=3,kv=0.22,kW=1.05564,pf=0.92,Vminpu=0.92,Vmaxpu=1.5,model=1,daily=IND1_16,status=variable
new load.3000605674M1 bus1=RML1051862640.1.2.3.0,Phases=3,kv=0.22,kW=2.11844,pf=0.92,Vminpu=0.92,Vmaxpu=1.5,model=1,daily=COM2_15,status=variable
new load.3000605675M1 bus1=RML1051862626.2.0,Phases=1,kv=0.127,kW=0.35976,pf=0.92,Vminpu=0.92,Vmaxpu=1.5,model=1,daily=RES2_10,status=variable
new load.3000605676M1 bus1=RML1051862738.2.0,Phases=1,kv=0.127,kW=0.92606,pf=0.92,Vminpu=0.92,Vmaxpu=1.5,model=1,daily=RES2_10,status=variable
new load.3000605678M1 bus1=RML1051862458.3.0,Phases=1,kv=0.127,kW=1.06872,pf=0.92,Vminpu=0.92,Vmaxpu=1.5,model=1,daily=RES3_11,status=variable
new load.3000605679M1 bus1=RML1051862472.1.0,Phases=1,kv=0.127,kW=0.7062,pf=0.92,Vminpu=0.92,Vmaxpu=1.5,model=1,daily=RES2_10,status=variable
new load.3000605680M1 bus1=RML1051862493.3.0,Phases=1,kv=0.127,kW=0.20614,pf=0.92,Vminpu=0.92,Vmaxpu=1.5,model=1,daily=RES1_10,status=variable
new load.3000605682M1 bus1=RML1051862409.2.0,Phases=1,kv=0.127,kW=0.5996,pf=0.92,Vminpu=0.92,Vmaxpu=1.5,model=1,daily=RES2_10,status=variable
new load.3000605683M1 bus1=RML1051862381.1.0,Phases=1,kv=0.127,kW=0.96604,pf=0.92,Vminpu=0.92,Vmaxpu=1.5,model=1,daily=RES2_10,status=variable
new load.3000605684M1 bus1=RML1051858727.1.2.3.0,Phases=3,kv=0.22,kW=0.20614,pf=0.92,Vminpu=0.92,Vmaxpu=1.5,model=1,daily=RES1_10,status=variable
new load.3000605692M1 bus1=RML1051858699.1.0,Phases=1,kv=0.127,kW=0.35658,pf=0.92,Vminpu=0.92,Vmaxpu=1.5,model=1,daily=RES1_10,status=variable
new load.3000605693M1 bus1=RML1060371610.1.3.0,Phases=2,kv=0.22,kW=0.70966,pf=0.92,Vminpu=0.92,Vmaxpu=1.5,model=1,daily=RES3_11,status=variable
new load.3000605695M1 bus1=RML1051862430.1.0,Phases=1,kv=0.127,kW=0.87276,pf=0.92,Vminpu=0.92,Vmaxpu=1.5,model=1,daily=RES2_10,status=variable
new load.3000605696M1 bus1=RML1051862549.3.0,Phases=1,kv=0.127,kW=0.87942,pf=0.92,Vminpu=0.92,Vmaxpu=1.5,model=1,daily=RES2_10,status=variable
new load.3000605698M1 bus1=RML1051862556.2.3.0,Phases=2,kv=0.22,kW=0.90608,pf=0.92,Vminpu=0.92,Vmaxpu=1.5,model=1,daily=RES2_10,status=variable
new load.3000605699M1 bus1=RML1051862563.1.2.0,Phases=2,kv=0.22,kW=1.05182,pf=0.92,Vminpu=0.92,Vmaxpu=1.5,model=1,daily=RES3_11,status=variable
new load.3000605700M1 bus1=RML1051862563.1.2.0,Phases=2,kv=0.22,kW=0.69288,pf=0.92,Vminpu=0.92,Vmaxpu=1.5,model=1,daily=RES2_10,status=variable
new load.3000605701M1 bus1=RML1051862570.3.0,Phases=1,kv=0.127,kW=0.51966,pf=0.92,Vminpu=0.92,Vmaxpu=1.5,model=1,daily=RES2_10,status=variable
new load.3000605702M1 bus1=RML1051862577.2.0,Phases=1,kv=0.127,kW=0.32872,pf=0.92,Vminpu=0.92,Vmaxpu=1.5,model=1,daily=RES1_10,status=variable
new load.3000080431M1 bus1=RML1051863690.2.0,Phases=1,kv=0.127,kW=0.83026,pf=0.92,Vminpu=0.92,Vmaxpu=1.5,model=1,daily=RES2_2,status=variable
new load.3000080434M1 bus1=RML1051863571.1.2.3.0,Phases=3,kv=0.22,kW=0.35666,pf=0.92,Vminpu=0.92,Vmaxpu=1.5,model=1,daily=IND2_2,status=variable
new load.3000080435M1 bus1=RML1051863592.3.0,Phases=1,kv=0.127,kW=0.53612,pf=0.92,Vminpu=0.92,Vmaxpu=1.5,model=1,daily=RES1_1,status=variable
new load.3000080436M1 bus1=RML1051863585.1.2.0,Phases=2,kv=0.22,kW=0.86604,pf=0.92,Vminpu=0.92,Vmaxpu=1.5,model=1,daily=RES2_2,status=variable
new load.3000080437M1 bus1=RML1051863599.1.2.0,Phases=2,kv=0.22,kW=0.3469,pf=0.92,Vminpu=0.92,Vmaxpu=1.5,model=1,daily=RES1_1,status=variable
new load.3000080439M1 bus1=RML1051863536.1.0,Phases=1,kv=0.127,kW=1.1595,pf=0.92,Vminpu=0.92,Vmaxpu=1.5,model=1,daily=RES2_2,status=variable
new load.3000080441M1 bus1=RML1051863543.2.3.0,Phases=2,kv=0.22,kW=3.92104,pf=0.92,Vminpu=0.92,Vmaxpu=1.5,model=1,daily=RES1_1,status=variable
new load.3000080442M1 bus1=RML1051863550.1.3.0,Phases=2,kv=0.22,kW=1.79222,pf=0.92,Vminpu=0.92,Vmaxpu=1.5,model=1,daily=RES3_2,status=variable
new load.3000080445M1 bus1=RML1051863606.3.0,Phases=1,kv=0.127,kW=0.44376,pf=0.92,Vminpu=0.92,Vmaxpu=1.5,model=1,daily=RES2_2,status=variable
new load.3000080446M1 bus1=RML1051863620.2.0,Phases=1,kv=0.127,kW=0.60122,pf=0.92,Vminpu=0.92,Vmaxpu=1.5,model=1,daily=RES2_2,status=variable
new load.3000080448M1 bus1=RML1051863613.1.2.3.0,Phases=3,kv=0.22,kW=0.08356,pf=0.92,Vminpu=0.92,Vmaxpu=1.5,model=1,daily=COM1_4,status=variable
new load.3000080449M1 bus1=RML1051863669.1.2.0,Phases=2,kv=0.22,kW=0.56544,pf=0.92,Vminpu=0.92,Vmaxpu=1.5,model=1,daily=RES2_2,status=variable
new load.3000080451M1 bus1=RML1051863641.3.0,Phases=1,kv=0.127,kW=0.94478,pf=0.92,Vminpu=0.92,Vmaxpu=1.5,model=1,daily=RES2_2,status=variable
new load.3000080493M1 bus1=RML1051863648.1.0,Phases=1,kv=0.127,kW=0.64416,pf=0.92,Vminpu=0.92,Vmaxpu=1.5,model=1,daily=RES2_2,status=variable
new load.3000080518M1 bus1=RML1051863718.1.2.0,Phases=2,kv=0.22,kW=0.65176,pf=0.92,Vminpu=0.92,Vmaxpu=1.5,model=1,daily=RES1_1,status=variable
new load.3000080519M1 bus1=RML1051863704.2.0,Phases=1,kv=0.127,kW=0.31492,pf=0.92,Vminpu=0.92,Vmaxpu=1.5,model=1,daily=RES2_2,status=variable
new load.3000080520M1 bus1=RML1051863711.2.3.0,Phases=2,kv=0.22,kW=1.03066,pf=0.92,Vminpu=0.92,Vmaxpu=1.5,model=1,daily=RES2_2,status=variable
new load.3000080521M1 bus1=RML1051863732.1.3.0,Phases=2,kv=0.22,kW=1.97224,pf=0.92,Vminpu=0.92,Vmaxpu=1.5,model=1,daily=RES3_2,status=variable
new load.3000080522M1 bus1=RML1051863739.1.2.0,Phases=2,kv=0.22,kW=0.89468,pf=0.92,Vminpu=0.92,Vmaxpu=1.5,model=1,daily=RES2_2,status=variable
new load.3000605401M1 bus1=RML1051865048.1.3.0,Phases=2,kv=0.22,kW=0.4277,pf=0.92,Vminpu=0.92,Vmaxpu=1.5,model=1,daily=COM1_15,status=variable
new load.3000605402M1 bus1=RML1051865055.1.2.3.0,Phases=3,kv=0.22,kW=8.18504,pf=0.92,Vminpu=0.92,Vmaxpu=1.5,model=1,daily=COM3_12,status=variable
new load.3000605409M1 bus1=RML1051865167.1.0,Phases=1,kv=0.127,kW=0.3531,pf=0.92,Vminpu=0.92,Vmaxpu=1.5,model=1,daily=RES2_10,status=variable
new load.3000605412M1 bus1=RML1051865104.1.2.0,Phases=2,kv=0.22,kW=0.74618,pf=0.92,Vminpu=0.92,Vmaxpu=1.5,model=1,daily=RES2_10,status=variable
new load.3000605413M1 bus1=RML1051865146.3.0,Phases=1,kv=0.127,kW=0.2953,pf=0.92,Vminpu=0.92,Vmaxpu=1.5,model=1,daily=RES1_10,status=variable