new line.18741651 bus1=BBT149736002.1.2.0,bus2=BBT149736003.1.2.0,Phases=2,Linecode=BT521_BT521_7_2_1,Length=0.000510000,Units=km
new line.18742281 bus1=BBT4126513.1.2.0,bus2=BBT149749193.1.2.0,Phases=2,Linecode=BT807_BT807_4_2_3,Length=0.024710000,Units=km
new line.18742325 bus1=BBT149749641.1.2.0,bus2=BBT816115.1.2.0,Phases=2,Linecode=BT107_BT107_7_2_1,Length=0.028180000,Units=km
new line.18742390 bus1=BBT2360553.1.2.0,bus2=BBT149750510.1.2.0,Phases=2,Linecode=BT807_BT807_4_2_3,Length=0.033550000,Units=km
new line.18742392 bus1=BBT149750510.1.2.0,bus2=BBT149750530.1.2.0,Phases=2,Linecode=BT807_BT807_4_2_3,Length=0.033260000,Units=km
new line.18742393 bus1=BBT149750530.1.2.0,bus2=BBT149750535.1.2.0,Phases=2,Linecode=BT807_BT807_4_2_3,Length=0.037130000,Units=km
new line.18742423 bus1=BBT149750535.1.2.0,bus2=BBT149751040.1.2.0,Phases=2,Linecode=BT807_BT807_4_2_3,Length=0.022480000,Units=km
new line.18742426 bus1=BBT149751440.1.2.0,bus2=BBT149751441.1.2.0,Phases=2,Linecode=BT521_BT521_7_2_1,Length=0.000510000,Units=km
new line.18742453 bus1=BBT149752432.1.2.3.0,bus2=BBT149752433.1.2.3.0,Phases=3,Linecode=BT518_BT518_7_3_1,Length=0.000510000,Units=km
new line.18742471 bus1=BBT149752433.1.2.3.0,bus2=BBT149753126.1.2.3.0,Phases=3,Linecode=BT803_BT803_4_3_4,Length=0.036920000,Units=km
new line.18742472 bus1=BBT149753126.1.2.3.0,bus2=BBT149753127.1.2.3.0,Phases=3,Linecode=BT803_BT803_4_3_4,Length=0.036920000,Units=km
new line.18742475 bus1=BBT149753127.1.2.3.0,bus2=BBT149753131.1.2.3.0,Phases=3,Linecode=BT803_BT803_4_3_4,Length=0.030040000,Units=km
new line.18742476 bus1=BBT149753131.1.2.3.0,bus2=BBT149753144.1.2.3.0,Phases=3,Linecode=BT803_BT803_4_3_4,Length=0.025040000,Units=km
new line.18742478 bus1=BBT149753144.1.2.3.0,bus2=BBT149753170.1.2.3.0,Phases=3,Linecode=BT803_BT803_4_3_4,Length=0.022040000,Units=km
new line.18742479 bus1=BBT149752433.1.2.3.0,bus2=BBT149753187.1.2.3.0,Phases=3,Linecode=BT803_BT803_4_3_4,Length=0.038300000,Units=km
new line.18742480 bus1=BBT149753187.1.2.3.0,bus2=BBT149753188.1.2.3.0,Phases=3,Linecode=BT803_BT803_4_3_4,Length=0.022840000,Units=km
new line.18742481 bus1=BBT149753188.1.2.3.0,bus2=BBT149753189.1.2.3.0,Phases=3,Linecode=BT803_BT803_4_3_4,Length=0.024610000,Units=km
new line.18742482 bus1=BBT149753189.1.2.3.0,bus2=BBT149753216.1.2.3.0,Phases=3,Linecode=BT803_BT803_4_3_4,Length=0.022490000,Units=km
new line.18742484 bus1=BBT149753189.1.2.3.0,bus2=BBT149753272.1.2.3.0,Phases=3,Linecode=BT803_BT803_4_3_4,Length=0.037620000,Units=km
new line.18742487 bus1=BBT149753216.1.2.3.0,bus2=BBT149753312.1.2.3.0,Phases=3,Linecode=BT803_BT803_4_3_4,Length=0.022380000,Units=km
new line.18742494 bus1=BBT149753189.1.2.3.0,bus2=BBT149753346.1.2.3.0,Phases=3,Linecode=BT803_BT803_4_3_4,Length=0.031920000,Units=km
new line.18742495 bus1=BBT149753346.1.2.3.0,bus2=BBT149753373.1.2.3.0,Phases=3,Linecode=BT803_BT803_4_3_4,Length=0.031080000,Units=km
new line.18742506 bus1=BBT149753187.1.2.3.0,bus2=BBT149753543.1.2.3.0,Phases=3,Linecode=BT803_BT803_4_3_4,Length=0.035010000,Units=km
new line.18742507 bus1=BBT149753543.1.2.3.0,bus2=BBT149753559.1.2.3.0,Phases=3,Linecode=BT803_BT803_4_3_4,Length=0.039140000,Units=km
new line.18742508 bus1=BBT149753559.1.2.3.0,bus2=BBT149753587.1.2.3.0,Phases=3,Linecode=BT803_BT803_4_3_4,Length=0.039690000,Units=km
new line.18742560 bus1=BBT149755353.1.2.3.0,bus2=BBT149755354.1.2.3.0,Phases=3,Linecode=BT518_BT518_7_3_1,Length=0.000510000,Units=km
new line.18742561 bus1=BBT149755392.1.2.3.0,bus2=BBT149755393.1.2.3.0,Phases=3,Linecode=BT518_BT518_7_3_1,Length=0.000510000,Units=km
new line.18742562 bus1=BBT149755470.1.2.3.0,bus2=BBT149755471.1.2.3.0,Phases=3,Linecode=BT518_BT518_7_3_1,Length=0.000510000,Units=km
new line.18742565 bus1=BBT149755526.1.2.3.0,bus2=BBT149755527.1.2.3.0,Phases=3,Linecode=BT518_BT518_7_3_1,Length=0.000510000,Units=km
new line.18742568 bus1=BBT149755587.1.2.3.0,bus2=BBT149755588.1.2.3.0,Phases=3,Linecode=BT518_BT518_7_3_1,Length=0.000510000,Units=km
new line.18742569 bus1=BBT149755654.1.2.3.0,bus2=BBT149755655.1.2.3.0,Phases=3,Linecode=BT518_BT518_7_3_1,Length=0.000510000,Units=km
new line.18742570 bus1=BBT149755588.1.2.3.0,bus2=BBT149755721.1.2.3.0,Phases=3,Linecode=BT803_BT803_4_3_4,Length=0.028240000,Units=km
new line.18742571 bus1=BBT149755655.1.2.3.0,bus2=BBT149755740.1.2.3.0,Phases=3,Linecode=BT803_BT803_4_3_4,Length=0.036420000,Units=km
new line.18742572 bus1=BBT149755588.1.2.3.0,bus2=BBT149755741.1.2.3.0,Phases=3,Linecode=BT803_BT803_4_3_4,Length=0.028650000,Units=km
new line.18742573 bus1=BBT149755740.1.2.3.0,bus2=BBT149755742.1.2.3.0,Phases=3,Linecode=BT803_BT803_4_3_4,Length=0.038970000,Units=km
new line.18742574 bus1=BBT149755742.1.2.3.0,bus2=BBT149755745.1.2.3.0,Phases=3,Linecode=BT803_BT803_4_3_4,Length=0.033990000,Units=km
new line.18742575 bus1=BBT149755741.1.2.3.0,bus2=BBT149755746.1.2.3.0,Phases=3,Linecode=BT803_BT803_4_3_4,Length=0.023780000,Units=km
new line.18742578 bus1=BBT149755655.1.2.3.0,bus2=BBT149755751.1.2.3.0,Phases=3,Linecode=BT803_BT803_4_3_4,Length=0.030490000,Units=km
new line.18742579 bus1=BBT149755746.1.2.3.0,bus2=BBT149755770.1.2.3.0,Phases=3,Linecode=BT803_BT803_4_3_4,Length=0.025090000,Units=km
new line.18742581 bus1=BBT149755751.1.2.3.0,bus2=BBT149755785.1.2.3.0,Phases=3,Linecode=BT803_BT803_4_3_4,Length=0.043030000,Units=km
new line.18742582 bus1=BBT149755785.1.2.3.0,bus2=BBT149755825.1.2.3.0,Phases=3,Linecode=BT803_BT803_4_3_4,Length=0.030490000,Units=km
new line.18742583 bus1=BBT149755740.1.2.3.0,bus2=BBT149755845.1.2.3.0,Phases=3,Linecode=BT803_BT803_4_3_4,Length=0.036790000,Units=km
new line.18742584 bus1=BBT149755845.1.2.3.0,bus2=BBT149755846.1.2.3.0,Phases=3,Linecode=BT803_BT803_4_3_4,Length=0.038440000,Units=km
new line.18742586 bus1=BBT149755527.1.2.3.0,bus2=BBT149755856.1.2.3.0,Phases=3,Linecode=BT803_BT803_4_3_4,Length=0.039080000,Units=km
new line.18742587 bus1=BBT149755721.1.2.3.0,bus2=BBT149755859.1.2.3.0,Phases=3,Linecode=BT803_BT803_4_3_4,Length=0.037670000,Units=km
new line.18742588 bus1=BBT149755856.1.2.3.0,bus2=BBT149755860.1.2.3.0,Phases=3,Linecode=BT803_BT803_4_3_4,Length=0.038440000,Units=km
new line.18742589 bus1=BBT149755859.1.2.3.0,bus2=BBT149755870.1.2.3.0,Phases=3,Linecode=BT803_BT803_4_3_4,Length=0.035250000,Units=km
new line.18742590 bus1=BBT149755870.1.2.3.0,bus2=BBT149755871.1.2.3.0,Phases=3,Linecode=BT803_BT803_4_3_4,Length=0.039990000,Units=km
new line.18742591 bus1=BBT149755527.1.2.3.0,bus2=BBT149755873.1.2.3.0,Phases=3,Linecode=BT803_BT803_4_3_4,Length=0.035490000,Units=km
new line.18742592 bus1=BBT149755873.1.2.3.0,bus2=BBT149755883.1.2.3.0,Phases=3,Linecode=BT803_BT803_4_3_4,Length=0.032670000,Units=km
new line.18742593 bus1=BBT149755883.1.2.3.0,bus2=BBT149755894.1.2.3.0,Phases=3,Linecode=BT803_BT803_4_3_4,Length=0.031260000,Units=km
new line.18742594 bus1=BBT149755871.1.2.3.0,bus2=BBT149755895.1.2.3.0,Phases=3,Linecode=BT803_BT803_4_3_4,Length=0.033860000,Units=km
new line.18742595 bus1=BBT149755894.1.2.3.0,bus2=BBT149755896.1.2.3.0,Phases=3,Linecode=BT803_BT803_4_3_4,Length=0.039850000,Units=km
new line.18742597 bus1=BBT149755741.1.2.3.0,bus2=BBT149755921.1.2.3.0,Phases=3,Linecode=BT803_BT803_4_3_4,Length=0.037470000,Units=km
new line.18742598 bus1=BBT149755896.1.2.3.0,bus2=BBT149755924.1.2.3.0,Phases=3,Linecode=BT803_BT803_4_3_4,Length=0.039850000,Units=km
new line.18742599 bus1=BBT149755921.1.2.3.0,bus2=BBT149755925.1.2.3.0,Phases=3,Linecode=BT803_BT803_4_3_4,Length=0.040530000,Units=km
new line.18742600 bus1=BBT149755924.1.2.3.0,bus2=BBT149755926.1.2.3.0,Phases=3,Linecode=BT803_BT803_4_3_4,Length=0.031400000,Units=km
new line.18742601 bus1=BBT149755925.1.2.3.0,bus2=BBT149755927.1.2.3.0,Phases=3,Linecode=BT803_BT803_4_3_4,Length=0.039690000,Units=km
new line.18742602 bus1=BBT149755924.1.2.3.0,bus2=BBT149755936.1.2.3.0,Phases=3,Linecode=BT803_BT803_4_3_4,Length=0.032260000,Units=km
new line.18742604 bus1=BBT149755936.1.2.3.0,bus2=BBT149755945.1.2.3.0,Phases=3,Linecode=BT803_BT803_4_3_4,Length=0.030620000,Units=km
new line.18742605 bus1=BBT149755873.1.2.3.0,bus2=BBT149755961.1.2.3.0,Phases=3,Linecode=BT803_BT803_4_3_4,Length=0.031840000,Units=km
new line.18742606 bus1=BBT149755961.1.2.3.0,bus2=BBT149755962.1.2.3.0,Phases=3,Linecode=BT803_BT803_4_3_4,Length=0.033260000,Units=km
new line.18742607 bus1=BBT149755873.1.2.3.0,bus2=BBT149755984.1.2.3.0,Phases=3,Linecode=BT803_BT803_4_3_4,Length=0.035400000,Units=km
new line.18742608 bus1=BBT149755471.1.2.3.0,bus2=BBT149755988.1.2.3.0,Phases=3,Linecode=BT803_BT803_4_3_4,Length=0.044850000,Units=km
new line.18742609 bus1=BBT149755988.1.2.3.0,bus2=BBT149755992.1.2.3.0,Phases=3,Linecode=BT803_BT803_4_3_4,Length=0.035490000,Units=km
new line.18742610 bus1=BBT149755992.1.2.3.0,bus2=BBT149756011.1.2.3.0,Phases=3,Linecode=BT803_BT803_4_3_4,Length=0.039730000,Units=km
new line.18742612 bus1=BBT149756011.1.2.3.0,bus2=BBT149756015.1.2.3.0,Phases=3,Linecode=BT803_BT803_4_3_4,Length=0.039730000,Units=km
new line.18742613 bus1=BBT149755751.1.2.3.0,bus2=BBT149756036.1.2.3.0,Phases=3,Linecode=BT803_BT803_4_3_4,Length=0.035490000,Units=km
new line.18742614 bus1=BBT149756036.1.2.3.0,bus2=BBT149756037.1.2.3.0,Phases=3,Linecode=BT803_BT803_4_3_4,Length=0.031910000,Units=km
new line.18742616 bus1=BBT149755988.1.2.3.0,bus2=BBT149756057.1.2.3.0,Phases=3,Linecode=BT803_BT803_4_3_4,Length=0.032540000,Units=km
new line.18742617 bus1=BBT149755988.1.2.3.0,bus2=BBT149756071.1.2.3.0,Phases=3,Linecode=BT803_BT803_4_3_4,Length=0.036810000,Units=km
new line.18742618 bus1=BBT149755471.1.2.3.0,bus2=BBT149756072.1.2.3.0,Phases=3,Linecode=BT803_BT803_4_3_4,Length=0.039850000,Units=km
new line.18742619 bus1=BBT149756072.1.2.3.0,bus2=BBT149756085.1.2.3.0,Phases=3,Linecode=BT803_BT803_4_3_4,Length=0.039850000,Units=km
new line.18742622 bus1=BBT149756085.1.2.3.0,bus2=BBT149756113.1.2.3.0,Phases=3,Linecode=BT803_BT803_4_3_4,Length=0.034230000,Units=km
new line.18742623 bus1=BBT149756113.1.2.3.0,bus2=BBT149756121.1.2.3.0,Phases=3,Linecode=BT803_BT803_4_3_4,Length=0.035000000,Units=km
new line.18742626 bus1=BBT149756113.1.2.3.0,bus2=BBT149756122.1.2.3.0,Phases=3,Linecode=BT803_BT803_4_3_4,Length=0.030030000,Units=km
new line.18742627 bus1=BBT149755393.1.2.3.0,bus2=BBT149756171.1.2.3.0,Phases=3,Linecode=BT803_BT803_4_3_4,Length=0.039230000,Units=km
new line.18742629 bus1=BBT149755393.1.2.3.0,bus2=BBT149756203.1.2.3.0,Phases=3,Linecode=BT803_BT803_4_3_4,Length=0.032220000,Units=km
new line.18742630 bus1=BBT149756203.1.2.3.0,bus2=BBT149756209.1.2.3.0,Phases=3,Linecode=BT803_BT803_4_3_4,Length=0.032220000,Units=km
new line.18742631 bus1=BBT149756209.1.2.3.0,bus2=BBT149756220.1.2.3.0,Phases=3,Linecode=BT803_BT803_4_3_4,Length=0.032220000,Units=km
new line.18742632 bus1=BBT149756220.1.2.3.0,bus2=BBT149756244.1.2.3.0,Phases=3,Linecode=BT803_BT803_4_3_4,Length=0.036640000,Units=km
new line.18742633 bus1=BBT149756171.1.2.3.0,bus2=BBT149756304.1.2.3.0,Phases=3,Linecode=BT803_BT803_4_3_4,Length=0.030620000,Units=km
new line.18742634 bus1=BBT149756171.1.2.3.0,bus2=BBT149756305.1.2.3.0,Phases=3,Linecode=BT803_BT803_4_3_4,Length=0.038030000,Units=km
new line.18742636 bus1=BBT149756244.1.2.3.0,bus2=BBT149756344.1.2.3.0,Phases=3,Linecode=BT803_BT803_4_3_4,Length=0.033630000,Units=km
new line.18742639 bus1=BBT149756244.1.2.3.0,bus2=BBT149756448.1.2.3.0,Phases=3,Linecode=BT803_BT803_4_3_4,Length=0.030540000,Units=km
new line.18742640 bus1=BBT149756171.1.2.3.0,bus2=BBT149756496.1.2.3.0,Phases=3,Linecode=BT803_BT803_4_3_4,Length=0.035630000,Units=km
new line.18742641 bus1=BBT149756496.1.2.3.0,bus2=BBT149756522.1.2.3.0,Phases=3,Linecode=BT803_BT803_4_3_4,Length=0.032040000,Units=km
new line.18742642 bus1=BBT149756522.1.2.3.0,bus2=BBT149756523.1.2.3.0,Phases=3,Linecode=BT803_BT803_4_3_4,Length=0.032040000,Units=km
new line.18742644 bus1=BBT149755354.1.2.3.0,bus2=BBT149756631.1.2.3.0,Phases=3,Linecode=BT803_BT803_4_3_4,Length=0.035630000,Units=km
new line.18742645 bus1=BBT149756685.1.2.3.0,bus2=BBT149756686.1.2.3.0,Phases=3,Linecode=BT518_BT518_7_3_1,Length=0.000510000,Units=km
new line.18742647 bus1=BBT149755354.1.2.3.0,bus2=BBT149756702.1.2.3.0,Phases=3,Linecode=BT803_BT803_4_3_4,Length=0.036420000,Units=km
new line.18742648 bus1=BBT149756702.1.2.3.0,bus2=BBT149756703.1.2.3.0,Phases=3,Linecode=BT803_BT803_4_3_4,Length=0.035250000,Units=km
new line.18742650 bus1=BBT149756703.1.2.3.0,bus2=BBT149756706.1.2.3.0,Phases=3,Linecode=BT803_BT803_4_3_4,Length=0.036640000,Units=km
new line.18742652 bus1=BBT149756706.1.2.3.0,bus2=BBT149756799.1.2.3.0,Phases=3,Linecode=BT803_BT803_4_3_4,Length=0.035860000,Units=km
new line.18742653 bus1=BBT149756706.1.2.3.0,bus2=BBT149756800.1.2.3.0,Phases=3,Linecode=BT803_BT803_4_3_4,Length=0.030030000,Units=km
new line.18742654 bus1=BBT149756631.1.2.3.0,bus2=BBT149756833.1.2.3.0,Phases=3,Linecode=BT803_BT803_4_3_4,Length=0.035020000,Units=km
new line.18742655 bus1=BBT149756833.1.2.3.0,bus2=BBT149756890.1.2.3.0,Phases=3,Linecode=BT803_BT803_4_3_4,Length=0.030820000,Units=km
new line.18742657 bus1=BBT149756833.1.2.3.0,bus2=BBT149756904.1.2.3.0,Phases=3,Linecode=BT803_BT803_4_3_4,Length=0.032220000,Units=km
new line.18742659 bus1=BBT149756833.1.2.3.0,bus2=BBT149756923.1.2.3.0,Phases=3,Linecode=BT803_BT803_4_3_4,Length=0.048860000,Units=km
new line.18742662 bus1=BBT149756904.1.2.3.0,bus2=BBT149756950.1.2.3.0,Phases=3,Linecode=BT803_BT803_4_3_4,Length=0.032040000,Units=km
new line.18742666 bus1=BBT149756686.1.2.3.0,bus2=BBT149757051.1.2.3.0,Phases=3,Linecode=BT803_BT803_4_3_4,Length=0.034150000,Units=km
new line.18742667 bus1=BBT149757051.1.2.3.0,bus2=BBT149757067.1.2.3.0,Phases=3,Linecode=BT803_BT803_4_3_4,Length=0.037230000,Units=km
new line.18742668 bus1=BBT149757067.1.2.3.0,bus2=BBT149757093.1.2.3.0,Phases=3,Linecode=BT803_BT803_4_3_4,Length=0.032030000,Units=km
new line.18742670 bus1=BBT149757145.1.2.3.0,bus2=BBT149757146.1.2.3.0,Phases=3,Linecode=BT518_BT518_7_3_1,Length=0.000510000,Units=km
new line.18742675 bus1=BBT149756686.1.2.3.0,bus2=BBT149757149.1.2.3.0,Phases=3,Linecode=BT803_BT803_4_3_4,Length=0.044800000,Units=km
new line.18742677 bus1=BBT149757149.1.2.3.0,bus2=BBT149757179.1.2.3.0,Phases=3,Linecode=BT803_BT803_4_3_4,Length=0.030430000,Units=km
new line.18742678 bus1=BBT149757146.1.2.3.0,bus2=BBT149757180.1.2.3.0,Phases=3,Linecode=BT803_BT803_4_3_4,Length=0.042220000,Units=km
new line.18742679 bus1=BBT149757180.1.2.3.0,bus2=BBT149757202.1.2.3.0,Phases=3,Linecode=BT803_BT803_4_3_4,Length=0.033640000,Units=km
new line.18698032 bus1=BBT148520370.1.2.3.0,bus2=BBT2284148.1.2.3.0,Phases=3,Linecode=BT803_BT803_4_3_4,Length=0.027740000,Units=km
new line.18698036 bus1=BBT148520527.1.2.3.0,bus2=BBT148520370.1.2.3.0,Phases=3,Linecode=BT509_BT509_7_3_1,Length=0.000510000,Units=km
new line.18761977 bus1=BBT150275616.1.2.0,bus2=BBT150275617.1.2.0,Phases=2,Linecode=BT521_BT521_7_2_1,Length=0.000510000,Units=km
new line.18844672 bus1=BBT152815448.1.2.0,bus2=BBT3153660.1.2.0,Phases=2,Linecode=BT513_BT513_7_2_1,Length=0.000510000,Units=km
new line.18844681 bus1=BBT152815901.1.2.0,bus2=BBT818138.1.2.0,Phases=2,Linecode=BT803_BT803_4_2_4,Length=0.034560000,Units=km
new line.18844682 bus1=BBT152815976.1.2.0,bus2=BBT818152.1.2.0,Phases=2,Linecode=BT803_BT803_4_2_4,Length=0.033630000,Units=km
new line.18844688 bus1=BBT152816145.1.2.0,bus2=BBT818159.1.2.0,Phases=2,Linecode=BT803_BT803_4_2_4,Length=0.034550000,Units=km
new line.18844700 bus1=BBT818166.1.2.0,bus2=BBT152816748.1.2.0,Phases=2,Linecode=BT803_BT803_4_2_4,Length=0.033630000,Units=km
new line.18848551 bus1=BBT152945476.1.2.0,bus2=BBT152945477.1.2.0,Phases=2,Linecode=BT521_BT521_7_2_1,Length=0.000510000,Units=km
new line.18850368 bus1=BBT803697.1.2.3.0,bus2=BBT152997786.1.2.3.0,Phases=3,Linecode=BT803_BT803_4_3_4,Length=0.035240000,Units=km
new line.18852422 bus1=BBT153054591.1.2.0,bus2=BBT153054592.1.2.0,Phases=2,Linecode=BT521_BT521_7_2_1,Length=0.000510000,Units=km
new line.18928491 bus1=BBT155387609.1.2.0,bus2=BBT155387610.1.2.0,Phases=2,Linecode=BT518_BT518_7_2_1,Length=0.000510000,Units=km
new line.18934219 bus1=BBT155642009.1.2.3.0,bus2=BBT155642010.1.2.3.0,Phases=3,Linecode=BT518_BT518_7_3_1,Length=0.000510000,Units=km
new line.18934224 bus1=BBT155642010.1.2.3.0,bus2=BBT155642054.1.2.3.0,Phases=3,Linecode=BT803_BT803_4_3_4,Length=0.028670000,Units=km
new line.18934226 bus1=BBT155642010.1.2.3.0,bus2=BBT155642097.1.2.3.0,Phases=3,Linecode=BT803_BT803_4_3_4,Length=0.019240000,Units=km
new line.18979560 bus1=BBT156892490.1.2.3.0,bus2=BBT156892491.1.2.3.0,Phases=3,Linecode=BT518_BT518_7_3_1,Length=0.000510000,Units=km
new line.18979604 bus1=BBT156892491.1.2.3.0,bus2=BBT156893415.1.2.3.0,Phases=3,Linecode=BT803_BT803_4_3_4,Length=0.021480000,Units=km
new line.18979606 bus1=BBT156893415.1.2.3.0,bus2=BBT156893467.1.2.3.0,Phases=3,Linecode=BT803_BT803_4_3_4,Length=0.018800000,Units=km
new line.18979609 bus1=BBT156892491.1.2.3.0,bus2=BBT156893512.1.2.3.0,Phases=3,Linecode=BT803_BT803_4_3_4,Length=0.029540000,Units=km
new line.18979642 bus1=BBT156893467.1.2.3.0,bus2=BBT156894179.1.2.3.0,Phases=3,Linecode=BT803_BT803_4_3_4,Length=0.037590000,Units=km
new line.18980411 bus1=BBT140740723.1.2.3.0,bus2=BBT156912847.1.2.3.0,Phases=3,Linecode=BT803_BT803_4_3_4,Length=0.033560000,Units=km
new line.18980412 bus1=BBT156912847.1.2.3.0,bus2=BBT156912848.1.2.3.0,Phases=3,Linecode=BT803_BT803_4_3_4,Length=0.033560000,Units=km
new line.18980421 bus1=BBT156913032.1.2.3.0,bus2=BBT156913033.1.2.3.0,Phases=3,Linecode=BT521_BT521_7_3_1,Length=0.000510000,Units=km
new line.18980423 bus1=BBT156913033.1.2.3.0,bus2=BBT140740639.1.2.3.0,Phases=3,Linecode=BT803_BT803_4_3_4,Length=0.035790000,Units=km
new line.18980424 bus1=BBT156913033.1.2.3.0,bus2=BBT156913053.1.2.3.0,Phases=3,Linecode=BT803_BT803_4_3_4,Length=0.035790000,Units=km
new line.18980425 bus1=BBT156913053.1.2.3.0,bus2=BBT156913056.1.2.3.0,Phases=3,Linecode=BT803_BT803_4_3_4,Length=0.042500000,Units=km
new line.18980426 bus1=BBT156913053.1.2.3.0,bus2=BBT156913057.1.2.3.0,Phases=3,Linecode=BT803_BT803_4_3_4,Length=0.033560000,Units=km
new line.18980427 bus1=BBT156913057.1.2.3.0,bus2=BBT156913058.1.2.3.0,Phases=3,Linecode=BT803_BT803_4_3_4,Length=0.034900000,Units=km
new line.18980428 bus1=BBT156913058.1.2.3.0,bus2=BBT156913072.1.2.3.0,Phases=3,Linecode=BT803_BT803_4_3_4,Length=0.035790000,Units=km
new line.18980448 bus1=BBT156913375.1.2.3.0,bus2=BBT156913376.1.2.3.0,Phases=3,Linecode=BT521_BT521_7_3_1,Length=0.000510000,Units=km
new line.18980450 bus1=BBT156913376.1.2.3.0,bus2=BBT156913406.1.2.3.0,Phases=3,Linecode=BT803_BT803_4_3_4,Length=0.039830000,Units=km
new line.18980451 bus1=BBT156913376.1.2.3.0,bus2=BBT156913442.1.2.3.0,Phases=3,Linecode=BT803_BT803_4_3_4,Length=0.039830000,Units=km
new line.18980452 bus1=BBT156913442.1.2.3.0,bus2=BBT156913443.1.2.3.0,Phases=3,Linecode=BT803_BT803_4_3_4,Length=0.039830000,Units=km
new line.18980453 bus1=BBT156913443.1.2.3.0,bus2=BBT156913444.1.2.3.0,Phases=3,Linecode=BT803_BT803_4_3_4,Length=0.038500000,Units=km
new line.18980455 bus1=BBT156913056.1.2.3.0,bus2=BBT156913457.1.2.3.0,Phases=3,Linecode=BT803_BT803_4_3_4,Length=0.027740000,Units=km
new line.18980456 bus1=BBT156913457.1.2.3.0,bus2=BBT156913458.1.2.3.0,Phases=3,Linecode=BT803_BT803_4_3_4,Length=0.027740000,Units=km
new line.18980461 bus1=BBT156913406.1.2.3.0,bus2=BBT156913610.1.2.3.0,Phases=3,Linecode=BT803_BT803_4_3_4,Length=0.038500000,Units=km
new line.18980462 bus1=BBT156913610.1.2.3.0,bus2=BBT156913611.1.2.3.0,Phases=3,Linecode=BT803_BT803_4_3_4,Length=0.040330000,Units=km
new line.18980479 bus1=BBT156913072.1.2.3.0,bus2=BBT156913954.1.2.3.0,Phases=3,Linecode=BT803_BT803_4_3_4,Length=0.026840000,Units=km
new line.18980480 bus1=BBT156913954.1.2.3.0,bus2=BBT156913956.1.2.3.0,Phases=3,Linecode=BT803_BT803_4_3_4,Length=0.027740000,Units=km
new line.18980481 bus1=BBT156913956.1.2.3.0,bus2=BBT156913987.1.2.3.0,Phases=3,Linecode=BT803_BT803_4_3_4,Length=0.040270000,Units=km
new line.18987088 bus1=BBT841448.1.2.0,bus2=BBT157095555.1.2.0,Phases=2,Linecode=BT808_BT808_4_2_3,Length=0.029030000,Units=km
new line.18987089 bus1=BBT157095555.1.2.0,bus2=BBT157095563.1.2.0,Phases=2,Linecode=BT808_BT808_4_2_3,Length=0.035070000,Units=km
new line.18987097 bus1=BBT127586708.1.2.0,bus2=BBT157095852.1.2.0,Phases=2,Linecode=BT803_BT803_4_2_4,Length=0.034730000,Units=km
new line.18987098 bus1=BBT127587023.1.2.0,bus2=BBT157095853.1.2.0,Phases=2,Linecode=BT803_BT803_4_2_4,Length=0.040050000,Units=km
new line.19043602 bus1=BBT158680681.1.2.0,bus2=BBT158680682.1.2.0,Phases=2,Linecode=BT521_BT521_7_2_1,Length=0.000510000,Units=km
new line.19043603 bus1=BBT153462870.1.2.0,bus2=BBT158680847.1.2.0,Phases=2,Linecode=BT807_BT807_4_2_3,Length=0.040330000,Units=km
new line.19043605 bus1=BBT158680682.1.2.0,bus2=BBT158680901.1.2.0,Phases=2,Linecode=BT807_BT807_4_2_3,Length=0.037040000,Units=km
new line.19043606 bus1=BBT158680901.1.2.0,bus2=BBT158680916.1.2.0,Phases=2,Linecode=BT807_BT807_4_2_3,Length=0.036260000,Units=km
new line.19043607 bus1=BBT158680916.1.2.0,bus2=BBT158680917.1.2.0,Phases=2,Linecode=BT807_BT807_4_2_3,Length=0.023450000,Units=km
new line.19043608 bus1=BBT158680917.1.2.0,bus2=BBT158680918.1.2.0,Phases=2,Linecode=BT807_BT807_4_2_3,Length=0.022690000,Units=km
new line.19043609 bus1=BBT158680682.1.2.0,bus2=BBT158680919.1.2.0,Phases=2,Linecode=BT807_BT807_4_2_3,Length=0.037830000,Units=km
new line.19043610 bus1=BBT158680919.1.2.0,bus2=BBT158680920.1.2.0,Phases=2,Linecode=BT807_BT807_4_2_3,Length=0.005660000,Units=km
new line.19043611 bus1=BBT158680920.1.2.0,bus2=BBT158680921.1.2.0,Phases=2,Linecode=BT807_BT807_4_2_3,Length=0.035800000,Units=km
new line.19043612 bus1=BBT158680921.1.2.0,bus2=BBT158680922.1.2.0,Phases=2,Linecode=BT807_BT807_4_2_3,Length=0.035800000,Units=km
new line.18732651 bus1=BBT149441396.1.2.0,bus2=BBT149441397.1.2.0,Phases=2,Linecode=BT521_BT521_7_2_1,Length=0.000510000,Units=km
new line.18734996 bus1=BBT149521283.1.2.0,bus2=BBT149521284.1.2.0,Phases=2,Linecode=BT521_BT521_7_2_1,Length=0.000510000,Units=km
new line.18737947 bus1=BBT149633670.1.2.0,bus2=BBT149633671.1.2.0,Phases=2,Linecode=BT508_BT508_7_2_1,Length=0.000510000,Units=km
new line.18801271 bus1=BBT151518375.1.2.0,bus2=BBT151518376.1.2.0,Phases=2,Linecode=BT508_BT508_7_2_1,Length=0.000510000,Units=km
new line.18801276 bus1=BBT151518430.1.2.0,bus2=BBT151518431.1.2.0,Phases=2,Linecode=BT508_BT508_7_2_1,Length=0.000510000,Units=km
new line.18804601 bus1=BBT151626268.1.2.0,bus2=BBT151626269.1.2.0,Phases=2,Linecode=BT521_BT521_7_2_1,Length=0.000510000,Units=km
new line.18804605 bus1=BBT151626474.1.2.0,bus2=BBT151626475.1.2.0,Phases=2,Linecode=BT521_BT521_7_2_1,Length=0.000510000,Units=km
new line.18809472 bus1=BBT151746306.1.2.0,bus2=BBT151746307.1.2.0,Phases=2,Linecode=BT518_BT518_7_2_1,Length=0.000510000,Units=km
new line.18809619 bus1=BBT151752480.1.2.3.0,bus2=BBT823185.1.2.3.0,Phases=3,Linecode=BT803_BT803_4_3_4,Length=0.025510000,Units=km
new line.18809620 bus1=BBT151752488.1.2.3.0,bus2=BBT151752480.1.2.3.0,Phases=3,Linecode=BT803_BT803_4_3_4,Length=0.024610000,Units=km
new line.18809645 bus1=BBT151752952.1.2.3.0,bus2=BBT823234.1.2.3.0,Phases=3,Linecode=BT518_BT518_7_3_1,Length=0.000510000,Units=km
new line.18809655 bus1=BBT151752997.1.2.3.0,bus2=BBT151753149.1.2.3.0,Phases=3,Linecode=BT803_BT803_4_3_4,Length=0.041420000,Units=km
new line.18877793 bus1=BBT153731493.1.2.0,bus2=BBT5835976.1.2.0,Phases=2,Linecode=BT513_BT513_7_2_1,Length=0.000510000,Units=km
new line.18877794 bus1=BBT5835976.1.2.0,bus2=BBT153731495.1.2.0,Phases=2,Linecode=BT803_BT803_4_2_4,Length=0.032670000,Units=km
new line.18877795 bus1=BBT153731495.1.2.0,bus2=BBT153731498.1.2.0,Phases=2,Linecode=BT803_BT803_4_2_4,Length=0.034950000,Units=km
new line.18877797 bus1=BBT153731495.1.2.0,bus2=BBT153731500.1.2.0,Phases=2,Linecode=BT803_BT803_4_2_4,Length=0.037140000,Units=km
new line.18877798 bus1=BBT153731500.1.2.0,bus2=BBT153731501.1.2.0,Phases=2,Linecode=BT803_BT803_4_2_4,Length=0.037140000,Units=km
new line.18877799 bus1=BBT153731501.1.2.0,bus2=BBT153731502.1.2.0,Phases=2,Linecode=BT803_BT803_4_2_4,Length=0.035360000,Units=km
new line.18877805 bus1=BBT5835969.1.2.0,bus2=BBT153731697.1.2.0,Phases=2,Linecode=BT803_BT803_4_2_4,Length=0.035360000,Units=km
new line.18877806 bus1=BBT5835969.1.2.0,bus2=BBT153731704.1.2.0,Phases=2,Linecode=BT803_BT803_4_2_4,Length=0.039380000,Units=km
new line.18879598 bus1=BBT149259736.1.2.0,bus2=BBT153791409.1.2.0,Phases=2,Linecode=BT807_BT807_4_2_3,Length=0.040030000,Units=km
new line.18887149 bus1=BBT138300628.1.2.3.0,bus2=BBT154064723.1.2.3.0,Phases=3,Linecode=BT803_BT803_4_3_4,Length=0.040070000,Units=km
new line.18887163 bus1=BBT593823.1.2.3.0,bus2=BBT154065182.1.2.3.0,Phases=3,Linecode=BT803_BT803_4_3_4,Length=0.004000000,Units=km
new line.18887164 bus1=BBT154065182.1.2.3.0,bus2=BBT154065215.1.2.3.0,Phases=3,Linecode=BT803_BT803_4_3_4,Length=0.026940000,Units=km
new line.18887178 bus1=BBT593788.1.2.3.0,bus2=BBT154065946.1.2.3.0,Phases=3,Linecode=BT803_BT803_4_3_4,Length=0.038340000,Units=km
new line.18950903 bus1=BBT148263740.1.2.0,bus2=BBT156077465.1.2.0,Phases=2,Linecode=BT807_BT807_4_2_3,Length=0.025630000,Units=km
new line.18950906 bus1=BBT156077465.1.2.0,bus2=BBT156077477.1.2.0,Phases=2,Linecode=BT807_BT807_4_2_3,Length=0.032040000,Units=km
new line.18950965 bus1=BBT156079953.1.2.0,bus2=BBT156079954.1.2.0,Phases=2,Linecode=BT521_BT521_7_2_1,Length=0.000510000,Units=km
new line.18950985 bus1=BBT156080733.1.2.0,bus2=BBT156080734.1.2.0,Phases=2,Linecode=BT521_BT521_7_2_1,Length=0.000510000,Units=km
new line.18952502 bus1=BBT156129795.1.2.0,bus2=BBT156129796.1.2.0,Phases=2,Linecode=BT518_BT518_7_2_1,Length=0.000510000,Units=km
new line.18955282 bus1=BBT156225136.1.2.0,bus2=BBT156225137.1.2.0,Phases=2,Linecode=BT513_BT513_7_2_1,Length=0.000510000,Units=km
new line.19109082 bus1=BBT161011424.1.2.0,bus2=BBT816339.1.2.0,Phases=2,Linecode=BT807_BT807_4_2_3,Length=0.023100000,Units=km
new line.19109088 bus1=BBT161011838.1.2.0,bus2=BBT816346.1.2.0,Phases=2,Linecode=BT518_BT518_7_2_1,Length=0.000510000,Units=km
new line.19109092 bus1=BBT161011424.1.2.0,bus2=BBT161011972.1.2.0,Phases=2,Linecode=BT807_BT807_4_2_3,Length=0.031810000,Units=km
new line.19109205 bus1=BBT161014735.1.2.0,bus2=BBT161014736.1.2.0,Phases=2,Linecode=BT518_BT518_7_2_1,Length=0.000510000,Units=km
new line.19112670 bus1=BBT801933.1.2.3.0,bus2=BBT161127092.1.2.3.0,Phases=3,Linecode=BT803_BT803_4_3_4,Length=0.035240000,Units=km
new line.19112672 bus1=BBT161127092.1.2.3.0,bus2=BBT161127140.1.2.3.0,Phases=3,Linecode=BT803_BT803_4_3_4,Length=0.032030000,Units=km
new line.19112754 bus1=BBT3225004.1.2.0,bus2=BBT161127574.1.2.0,Phases=2,Linecode=BT807_BT807_4_2_3,Length=0.036640000,Units=km
new line.19112763 bus1=BBT149756113.1.2.3.0,bus2=BBT161127723.1.2.3.0,Phases=3,Linecode=BT803_BT803_4_3_4,Length=0.034850000,Units=km
new line.19112764 bus1=BBT161127723.1.2.3.0,bus2=BBT161127726.1.2.3.0,Phases=3,Linecode=BT803_BT803_4_3_4,Length=0.034850000,Units=km
new line.19112767 bus1=BBT3150272.1.2.3.0,bus2=BBT161127818.1.2.3.0,Phases=3,Linecode=BT803_BT803_4_3_4,Length=0.034500000,Units=km
new line.19112768 bus1=BBT161127818.1.2.3.0,bus2=BBT161127819.1.2.3.0,Phases=3,Linecode=BT803_BT803_4_3_4,Length=0.035490000,Units=km
new line.19112769 bus1=BBT161127819.1.2.3.0,bus2=BBT161127820.1.2.3.0,Phases=3,Linecode=BT803_BT803_4_3_4,Length=0.035760000,Units=km
new line.19112804 bus1=BBT158368396.1.2.3.0,bus2=BBT161130016.1.2.3.0,Phases=3,Linecode=BT803_BT803_4_3_4,Length=0.033540000,Units=km
new line.19112850 bus1=BBT2360714.1.2.0,bus2=BBT161131157.1.2.0,Phases=2,Linecode=BT807_BT807_4_2_3,Length=0.037960000,Units=km
new line.19112851 bus1=BBT161131157.1.2.0,bus2=BBT161131161.1.2.0,Phases=2,Linecode=BT807_BT807_4_2_3,Length=0.038910000,Units=km
new line.19112852 bus1=BBT161131161.1.2.0,bus2=BBT161131166.1.2.0,Phases=2,Linecode=BT807_BT807_4_2_3,Length=0.032590000,Units=km
new line.19112876 bus1=BBT71534775.1.2.0,bus2=BBT161131789.1.2.0,Phases=2,Linecode=BT807_BT807_4_2_3,Length=0.029420000,Units=km
new line.19112878 bus1=BBT161131789.1.2.0,bus2=BBT5453489.1.2.0,Phases=2,Linecode=BT807_BT807_4_2_3,Length=0.030250000,Units=km
new line.19112884 bus1=BBT161131839.1.2.0,bus2=BBT161131947.1.2.0,Phases=2,Linecode=BT807_BT807_4_2_3,Length=0.034680000,Units=km
new line.19112896 bus1=BBT3150265.1.2.3.0,bus2=BBT161132659.1.2.3.0,Phases=3,Linecode=BT803_BT803_4_3_4,Length=0.031060000,Units=km
new line.19112940 bus1=BBT161134367.1.2.0,bus2=BBT163820475.1.2.0,Phases=2,Linecode=BT803_BT803_4_2_4,Length=0.028030000,Units=km
new line.19113002 bus1=BBT5652996.1.2.0,bus2=BBT161136573.1.2.0,Phases=2,Linecode=BT807_BT807_4_2_3,Length=0.031970000,Units=km
new line.19113003 bus1=BBT161136573.1.2.0,bus2=BBT161136634.1.2.0,Phases=2,Linecode=BT807_BT807_4_2_3,Length=0.036710000,Units=km
new line.19113004 bus1=BBT161136573.1.2.0,bus2=BBT161136646.1.2.0,Phases=2,Linecode=BT807_BT807_4_2_3,Length=0.034500000,Units=km
new line.10051236 bus1=BBT11287527.1.2.0,bus2=BBT146554608.1.2.0,Phases=2,Linecode=BT807_BT807_4_2_3,Length=0.032270000,Units=km
new line.10051243 bus1=BBT146554608.1.2.0,bus2=BBT146554615.1.2.0,Phases=2,Linecode=BT807_BT807_4_2_3,Length=0.030910000,Units=km
new line.10051250 bus1=BBT146554615.1.2.0,bus2=BBT146554622.1.2.0,Phases=2,Linecode=BT807_BT807_4_2_3,Length=0.030910000,Units=km
new line.10051257 bus1=BBT146554622.1.2.0,bus2=BBT146554629.1.2.0,Phases=2,Linecode=BT807_BT807_4_2_3,Length=0.029550000,Units=km
new line.10051649 bus1=BBT146568972.1.2.0,bus2=BBT146568979.1.2.0,Phases=2,Linecode=BT518_BT518_7_2_1,Length=0.000510000,Units=km
new line.10051656 bus1=BBT146568979.1.2.0,bus2=BBT5695500.1.2.0,Phases=2,Linecode=BT803_BT803_4_2_4,Length=0.032580000,Units=km
new line.10051663 bus1=BBT146568979.1.2.0,bus2=BBT146568993.1.2.0,Phases=2,Linecode=BT803_BT803_4_2_4,Length=0.033330000,Units=km