new line.CTR10604 bus1=BMT125222276.2,bus2=BMT134796561.2,Phases=1,LineCode=tieSwitch1,Length=0.001,Units=km,switch=T !numEQ 157574
new line.CTR10681 bus1=BMT125215451.3,bus2=BMT125215486.3,Phases=1,LineCode=tieSwitch1,Length=0.001,Units=km,switch=T !numEQ 156723
new line.CTR10688 bus1=BMT125215493.3,bus2=BMT125215507.3,Phases=1,LineCode=tieSwitch1,Length=0.001,Units=km,switch=T !numEQ 156747
new line.CTR113049 bus1=BMT172511682.1.2.3,bus2=BMT125209291.1.2.3,Phases=3,LineCode=tieSwitch,Length=0.001,Units=km,switch=T !numEQ 90552
open line.CTR113049 term=1
new line.CTR113056 bus1=BMT167369304.1.2.3,bus2=BMT125209284.1.2.3,Phases=3,LineCode=tieSwitch,Length=0.001,Units=km,switch=T !numEQ 90553
new line.CTR113063 bus1=BMT157299834.1.2.3,bus2=BMT125209214.1.2.3,Phases=3,LineCode=tieSwitch,Length=0.001,Units=km,switch=T !numEQ 90554
new line.CTR113077 bus1=BMT125209347.1.2.3,bus2=BMT143521431.1.2.3,Phases=3,LineCode=tieSwitch,Length=0.001,Units=km,switch=T !numEQ 90556
new line.CTR113091 bus1=BMT125209515.1.2.3,bus2=BMT160304239.1.2.3,Phases=3,LineCode=tieSwitch,Length=0.001,Units=km,switch=T !numEQ 90558
new line.CTR113098 bus1=BMT172511685.1.2.3,bus2=BMT3334232.1.2.3,Phases=3,LineCode=tieSwitch,Length=0.001,Units=km,switch=T !numEQ 90559
new line.CTR12613 bus1=BMT125212609.1,bus2=BMT164691367.1,Phases=1,LineCode=tieSwitch1,Length=0.001,Units=km,switch=T !numEQ 178708
new line.CTR12746 bus1=BMT125212700.1,bus2=BMT164691383.1,Phases=1,LineCode=tieSwitch1,Length=0.001,Units=km,switch=T !numEQ 178709
new line.CTR133629 bus1=BMT125218139.3,bus2=BMT125218160.3,Phases=1,LineCode=tieSwitch1,Length=0.001,Units=km,switch=T !numEQ 177138
new line.CTR170582 bus1=BMT125212098.1,bus2=BMT164691457.1,Phases=1,LineCode=tieSwitch1,Length=0.001,Units=km,switch=T !numEQ 203145
new line.CTR183770 bus1=BMT125210747.3,bus2=BMT172924946.3,Phases=1,LineCode=tieSwitch1,Length=0.001,Units=km,switch=T !numEQ 40023
new line.CTR183777 bus1=BMT171340883.3,bus2=BMT172925065.3,Phases=1,LineCode=tieSwitch1,Length=0.001,Units=km,switch=T !numEQ 40024
new line.CTR184428 bus1=BMT125211377.1.2.3,bus2=BMT164732300.1.2.3,Phases=3,LineCode=tieSwitch,Length=0.001,Units=km,switch=T !numEQ 158489
new line.CTR184568 bus1=BMT125211146.2,bus2=BMT135512164.2,Phases=1,LineCode=tieSwitch1,Length=0.001,Units=km,switch=T !numEQ 158910
new line.CTR184736 bus1=BMT125218258.1,bus2=BMT143411573.1,Phases=1,LineCode=tieSwitch1,Length=0.001,Units=km,switch=T !numEQ 40028
new line.CTR184743 bus1=BMT125218293.1,bus2=BMT155607106.1,Phases=1,LineCode=tieSwitch1,Length=0.001,Units=km,switch=T !numEQ 40029
new line.CTR184750 bus1=BMT125218328.1,bus2=BMT125218524.1,Phases=1,LineCode=tieSwitch1,Length=0.001,Units=km,switch=T !numEQ 40030
new line.CTR184771 bus1=BMT125210908.3,bus2=BMT170760277.3,Phases=1,LineCode=tieSwitch1,Length=0.001,Units=km,switch=T !numEQ 40033
new line.CTR184841 bus1=BMT125210992.1,bus2=BMT125217432.1,Phases=1,LineCode=tieSwitch1,Length=0.001,Units=km,switch=T !numEQ 39923
new line.CTR184848 bus1=BMT125210999.3,bus2=BMT125217404.3,Phases=1,LineCode=tieSwitch1,Length=0.001,Units=km,switch=T !numEQ 39924
new line.CTR184855 bus1=BMT125211006.1.2.3,bus2=BMT168183339.1.2.3,Phases=3,LineCode=tieSwitch,Length=0.001,Units=km,switch=T !numEQ 39925
new line.CTR184862 bus1=BMT125215612.3,bus2=BMT163010884.3,Phases=1,LineCode=tieSwitch1,Length=0.001,Units=km,switch=T !numEQ 39926
new line.CTR184869 bus1=BMT125217005.3,bus2=BMT125217173.3,Phases=1,LineCode=tieSwitch1,Length=0.001,Units=km,switch=T !numEQ 39927
new line.CTR184876 bus1=BMT125215668.2,bus2=BMT168183511.2,Phases=1,LineCode=tieSwitch1,Length=0.001,Units=km,switch=T !numEQ 39928
new line.CTR184883 bus1=BMT125215689.2,bus2=BMT168183508.2,Phases=1,LineCode=tieSwitch1,Length=0.001,Units=km,switch=T !numEQ 39929
new line.CTR184890 bus1=BMT125215703.2,bus2=BMT168183359.2,Phases=1,LineCode=tieSwitch1,Length=0.001,Units=km,switch=T !numEQ 39930
new line.CTR184897 bus1=BMT125215815.2,bus2=BMT168551022.2,Phases=1,LineCode=tieSwitch1,Length=0.001,Units=km,switch=T !numEQ 39931
new line.CTR184904 bus1=BMT125216011.2,bus2=BMT168252746.2,Phases=1,LineCode=tieSwitch1,Length=0.001,Units=km,switch=T !numEQ 39932
new line.CTR184911 bus1=BMT125216018.2,bus2=BMT168600713.2,Phases=1,LineCode=tieSwitch1,Length=0.001,Units=km,switch=T !numEQ 39933
new line.CTR184925 bus1=BMT125211132.1,bus2=BMT125215199.1,Phases=1,LineCode=tieSwitch1,Length=0.001,Units=km,switch=T !numEQ 39935
new line.CTR184932 bus1=BMT125215213.1,bus2=BMT125215227.1,Phases=1,LineCode=tieSwitch1,Length=0.001,Units=km,switch=T !numEQ 39936
new line.CTR184939 bus1=BMT125211153.1,bus2=BMT125215115.1,Phases=1,LineCode=tieSwitch1,Length=0.001,Units=km,switch=T !numEQ 39937
new line.CTR184946 bus1=BMT125211314.1.2.3,bus2=BMT131940365.1.2.3,Phases=3,LineCode=tieSwitch,Length=0.001,Units=km,switch=T !numEQ 39938
new line.CTR184953 bus1=BMT125213596.2,bus2=BMT157969044.2,Phases=1,LineCode=tieSwitch1,Length=0.001,Units=km,switch=T !numEQ 39939
new line.CTR184960 bus1=BMT125214765.2,bus2=BMT125214779.2,Phases=1,LineCode=tieSwitch1,Length=0.001,Units=km,switch=T !numEQ 39940
new line.CTR184967 bus1=BMT125211839.1,bus2=BMT164691244.1,Phases=1,LineCode=tieSwitch1,Length=0.001,Units=km,switch=T !numEQ 39946
new line.CTR184974 bus1=BMT125211853.1,bus2=BMT164691249.1,Phases=1,LineCode=tieSwitch1,Length=0.001,Units=km,switch=T !numEQ 39947
new line.CTR184981 bus1=BMT125211895.1,bus2=BMT164691418.1,Phases=1,LineCode=tieSwitch1,Length=0.001,Units=km,switch=T !numEQ 39948
new line.CTR184988 bus1=BMT125212336.1,bus2=BMT164691423.1,Phases=1,LineCode=tieSwitch1,Length=0.001,Units=km,switch=T !numEQ 39949
new line.CTR184995 bus1=BMT125212091.1,bus2=BMT164691453.1,Phases=1,LineCode=tieSwitch1,Length=0.001,Units=km,switch=T !numEQ 39950
new line.CTR185002 bus1=BMT125219378.1,bus2=BMT149184937.1,Phases=1,LineCode=tieSwitch1,Length=0.001,Units=km,switch=T !numEQ 39951
new line.CTR185009 bus1=BMT125212161.1,bus2=BMT164691455.1,Phases=1,LineCode=tieSwitch1,Length=0.001,Units=km,switch=T !numEQ 39952
new line.CTR185016 bus1=BMT125219420.1,bus2=BMT149184954.1,Phases=1,LineCode=tieSwitch1,Length=0.001,Units=km,switch=T !numEQ 39953
new line.CTR185023 bus1=BMT125219497.1,bus2=BMT149184973.1,Phases=1,LineCode=tieSwitch1,Length=0.001,Units=km,switch=T !numEQ 39954
new line.CTR185030 bus1=BMT125219518.1,bus2=BMT149185157.1,Phases=1,LineCode=tieSwitch1,Length=0.001,Units=km,switch=T !numEQ 39955
new line.CTR185044 bus1=BMT125219539.1,bus2=BMT149184996.1,Phases=1,LineCode=tieSwitch1,Length=0.001,Units=km,switch=T !numEQ 39956
new line.CTR185051 bus1=BMT125220316.1,bus2=BMT170580719.1,Phases=1,LineCode=tieSwitch1,Length=0.001,Units=km,switch=T !numEQ 39957
new line.CTR185058 bus1=BMT125220365.1,bus2=BMT170625100.1,Phases=1,LineCode=tieSwitch1,Length=0.001,Units=km,switch=T !numEQ 39958
new line.CTR185065 bus1=BMT125219567.1,bus2=BMT172346855.1,Phases=1,LineCode=tieSwitch1,Length=0.001,Units=km,switch=T !numEQ 39960
new line.CTR185072 bus1=BMT172346712.1,bus2=BMT172346729.1,Phases=1,LineCode=tieSwitch1,Length=0.001,Units=km,switch=T !numEQ 39961
new line.CTR185079 bus1=BMT125218965.1,bus2=BMT149201430.1,Phases=1,LineCode=tieSwitch1,Length=0.001,Units=km,switch=T !numEQ 39963
new line.CTR185086 bus1=BMT125221156.1,bus2=BMT172250662.1,Phases=1,LineCode=tieSwitch1,Length=0.001,Units=km,switch=T !numEQ 39964
new line.CTR185093 bus1=BMT125221359.1,bus2=BMT149183235.1,Phases=1,LineCode=tieSwitch1,Length=0.001,Units=km,switch=T !numEQ 39965
new line.CTR185100 bus1=BMT125221184.1,bus2=BMT159057251.1,Phases=1,LineCode=tieSwitch1,Length=0.001,Units=km,switch=T !numEQ 39966
new line.CTR185121 bus1=BMT125218979.1,bus2=BMT156765153.1,Phases=1,LineCode=tieSwitch1,Length=0.001,Units=km,switch=T !numEQ 39962
new line.CTR185191 bus1=BMT125209361.2,bus2=BMT125209410.2,Phases=1,LineCode=tieSwitch1,Length=0.001,Units=km,switch=T !numEQ 39822
new line.CTR185198 bus1=BMT168243528.1.2.3,bus2=BMT125209249.1.2.3,Phases=3,LineCode=tieSwitch,Length=0.001,Units=km,switch=T !numEQ 39823
new line.CTR185205 bus1=BMT125209298.1.2.3,bus2=BMT172511673.1.2.3,Phases=3,LineCode=tieSwitch,Length=0.001,Units=km,switch=T !numEQ 39824
new line.CTR185212 bus1=BMT125209830.1.2.3,bus2=BMT173176927.1.2.3,Phases=3,LineCode=tieSwitch,Length=0.001,Units=km,switch=T !numEQ 39825
new line.CTR185219 bus1=BMT142681410.2,bus2=BMT142681816.2,Phases=1,LineCode=tieSwitch1,Length=0.001,Units=km,switch=T !numEQ 39827
new line.CTR185226 bus1=BMT125210110.3,bus2=BMT161438322.3,Phases=1,LineCode=tieSwitch1,Length=0.001,Units=km,switch=T !numEQ 39828
new line.CTR185233 bus1=BMT164269707.3,bus2=BMT164269710.3,Phases=1,LineCode=tieSwitch1,Length=0.001,Units=km,switch=T !numEQ 39829
new line.CTR185254 bus1=BMT125209081.1.2.3,bus2=BMT172800565.1.2.3,Phases=3,LineCode=tieSwitch,Length=0.001,Units=km,switch=T !numEQ 279159
new line.CTR185261 bus1=BMT125209809.1.2.3,bus2=BMT125209844.1.2.3,Phases=3,LineCode=tieSwitch,Length=0.001,Units=km,switch=T !numEQ 39835
new line.CTR185268 bus1=BMT125210460.3,bus2=BMT166529703.3,Phases=1,LineCode=tieSwitch1,Length=0.001,Units=km,switch=T !numEQ 39836
new line.CTR185275 bus1=BMT170700057.1.2.3,bus2=BMT172804922.1.2.3,Phases=3,LineCode=tieSwitch,Length=0.001,Units=km,switch=T !numEQ 279160
new line.CTR185282 bus1=BMT125224579.2,bus2=BMT170638283.2,Phases=1,LineCode=tieSwitch1,Length=0.001,Units=km,switch=T !numEQ 39838
new line.CTR185289 bus1=BMT125209746.1.2.3,bus2=BMT125224460.1.2.3,Phases=3,LineCode=tieSwitch,Length=0.001,Units=km,switch=T !numEQ 279161
new line.CTR185296 bus1=BMT125208955.1.2.3,bus2=BMT125209018.1.2.3,Phases=3,LineCode=tieSwitch,Length=0.001,Units=km,switch=T !numEQ 39840
new line.CTR185303 bus1=BMT125209753.1.2.3,bus2=BMT172897809.1.2.3,Phases=3,LineCode=tieSwitch,Length=0.001,Units=km,switch=T !numEQ 279162
new line.CTR185310 bus1=BMT143285083.1.2.3,bus2=BMT143285244.1.2.3,Phases=3,LineCode=tieSwitch,Length=0.001,Units=km,switch=T !numEQ 39843
new line.CTR185317 bus1=BMT125210593.1.2.3,bus2=BMT172899192.1.2.3,Phases=3,LineCode=tieSwitch,Length=0.001,Units=km,switch=T !numEQ 279164
new line.CTR185324 bus1=BMT125210614.2,bus2=BMT172900410.2,Phases=1,LineCode=tieSwitch1,Length=0.001,Units=km,switch=T !numEQ 279167
new line.CTR185331 bus1=BMT172789552.1.2.3,bus2=BMT125209732.1.2.3,Phases=3,LineCode=tieSwitch,Length=0.001,Units=km,switch=T !numEQ 39847
open line.CTR185331 term=1
new line.CTR185366 bus1=BMT125210208.3,bus2=BMT164269681.3,Phases=1,LineCode=tieSwitch1,Length=0.001,Units=km,switch=T !numEQ 39853
new line.CTR190476 bus1=BMT120470046.3,bus2=BMT120470081.3,Phases=1,LineCode=tieSwitch1,Length=0.001,Units=km,switch=T !numEQ 39059
new line.CTR190483 bus1=BMT120470445.3,bus2=BMT167928799.3,Phases=1,LineCode=tieSwitch1,Length=0.001,Units=km,switch=T !numEQ 39061
new line.CTR190490 bus1=BMT120470697.3,bus2=BMT173184374.3,Phases=1,LineCode=tieSwitch1,Length=0.001,Units=km,switch=T !numEQ 39063
new line.CTR190497 bus1=BMT120470599.3,bus2=BMT167928999.3,Phases=1,LineCode=tieSwitch1,Length=0.001,Units=km,switch=T !numEQ 39064
new line.CTR190504 bus1=BMT120470039.1.2.3,bus2=BMT120470347.1.2.3,Phases=3,LineCode=tieSwitch,Length=0.001,Units=km,switch=T !numEQ 39065
new line.CTR190511 bus1=BMT120470067.3,bus2=BMT148736228.3,Phases=1,LineCode=tieSwitch1,Length=0.001,Units=km,switch=T !numEQ 39066
new line.CTR190518 bus1=BMT3227321.1.2.3,bus2=BMT120470074.1.2.3,Phases=3,LineCode=tieSwitch,Length=0.001,Units=km,switch=T !numEQ 39067
new line.CTR24758 bus1=BMT125213974.2,bus2=BMT125214023.2,Phases=1,LineCode=tieSwitch1,Length=0.001,Units=km,switch=T !numEQ 178713
new line.CTR24765 bus1=BMT125214058.2,bus2=BMT125214079.2,Phases=1,LineCode=tieSwitch1,Length=0.001,Units=km,switch=T !numEQ 178714
new line.CTR24786 bus1=BMT125213918.2,bus2=BMT125214142.2,Phases=1,LineCode=tieSwitch1,Length=0.001,Units=km,switch=T !numEQ 178717
new line.CTR24800 bus1=BMT125213939.2,bus2=BMT125214114.2,Phases=1,LineCode=tieSwitch1,Length=0.001,Units=km,switch=T !numEQ 178719
new line.CTR248163 bus1=BMT125208906.1.2.3,bus2=BMT130525168.1.2.3,Phases=3,LineCode=tieSwitch,Length=0.001,Units=km,switch=T !numEQ 195464
new line.CTR24821 bus1=BMT125211279.3,bus2=BMT125211293.3,Phases=1,LineCode=tieSwitch1,Length=0.001,Units=km,switch=T !numEQ 178723
new line.CTR24912 bus1=BMT125214198.2,bus2=BMT125214233.2,Phases=1,LineCode=tieSwitch1,Length=0.001,Units=km,switch=T !numEQ 178773
new line.CTR261911 bus1=BMT156892685.2,bus2=BMT157381590.2,Phases=1,LineCode=tieSwitch1,Length=0.001,Units=km,switch=T !numEQ 195856
new line.CTR262408 bus1=BMT120471670.3,bus2=BMT167928961.3,Phases=1,LineCode=tieSwitch1,Length=0.001,Units=km,switch=T !numEQ 155960
new line.CTR262751 bus1=BMT125219322.1,bus2=BMT149201416.1,Phases=1,LineCode=tieSwitch1,Length=0.001,Units=km,switch=T !numEQ 159110
new line.CTR263080 bus1=BMT125217698.3,bus2=BMT125218132.3,Phases=1,LineCode=tieSwitch1,Length=0.001,Units=km,switch=T !numEQ 177137
new line.CTR11045 bus1=BMT125223130.2,bus2=BMT125223151.2,Phases=1,LineCode=tieSwitch1,Length=0.001,Units=km,switch=T !numEQ 157447
new line.CTR13880 bus1=BMT125216466.2,bus2=BMT168183464.2,Phases=1,LineCode=tieSwitch1,Length=0.001,Units=km,switch=T !numEQ 158623
new line.CTR13887 bus1=BMT125216410.2,bus2=BMT168183472.2,Phases=1,LineCode=tieSwitch1,Length=0.001,Units=km,switch=T !numEQ 158625
new line.CTR13894 bus1=BMT125216543.2,bus2=BMT168183461.2,Phases=1,LineCode=tieSwitch1,Length=0.001,Units=km,switch=T !numEQ 159033
new line.CTR139 bus1=BMT125213169.1,bus2=BMT164691315.1,Phases=1,LineCode=tieSwitch1,Length=0.001,Units=km,switch=T !numEQ 157496
new line.CTR13901 bus1=BMT125216480.2,bus2=BMT168183456.2,Phases=1,LineCode=tieSwitch1,Length=0.001,Units=km,switch=T !numEQ 158624
new line.CTR13915 bus1=BMT125216438.2,bus2=BMT168183469.2,Phases=1,LineCode=tieSwitch1,Length=0.001,Units=km,switch=T !numEQ 158622
new line.CTR1448 bus1=BMT170300438.1.2.3,bus2=BMT125208717.1.2.3,Phases=3,LineCode=tieSwitch,Length=0.001,Units=km,switch=T !numEQ 132157
new line.CTR1623 bus1=BMT125208745.1.2.3,bus2=BMT125208773.1.2.3,Phases=3,LineCode=tieSwitch,Length=0.001,Units=km,switch=T !numEQ 132334
new line.CTR172668 bus1=BMT170996385.1.2.3,bus2=BMT125197713.1.2.3,Phases=3,LineCode=tieSwitch,Length=0.001,Units=km,switch=T !numEQ 41888
open line.CTR172668 term=1
new line.CTR173207 bus1=BMT120470774.3,bus2=BMT167928848.3,Phases=1,LineCode=tieSwitch1,Length=0.001,Units=km,switch=T !numEQ 41974
new line.CTR17331 bus1=BMT125216347.2,bus2=BMT168183443.2,Phases=1,LineCode=tieSwitch1,Length=0.001,Units=km,switch=T !numEQ 182963
new line.CTR185415 bus1=BMT125210579.1.2.3,bus2=BMT143285069.1.2.3,Phases=3,LineCode=tieSwitch,Length=0.001,Units=km,switch=T !numEQ 279163
new line.CTR185436 bus1=BMT125208927.1.2.3,bus2=BMT140754835.1.2.3,Phases=3,LineCode=tieSwitch,Length=0.001,Units=km,switch=T !numEQ 311252
new line.CTR185779 bus1=BMT125213610.1,bus2=BMT156080885.1,Phases=1,LineCode=tieSwitch1,Length=0.001,Units=km,switch=T !numEQ 39941
new line.CTR185786 bus1=BMT125213652.1,bus2=BMT132261399.1,Phases=1,LineCode=tieSwitch1,Length=0.001,Units=km,switch=T !numEQ 39942
new line.CTR185793 bus1=BMT125214352.1,bus2=BMT132261518.1,Phases=1,LineCode=tieSwitch1,Length=0.001,Units=km,switch=T !numEQ 39943
new line.CTR185800 bus1=BMT125213862.2,bus2=BMT160054370.2,Phases=1,LineCode=tieSwitch1,Length=0.001,Units=km,switch=T !numEQ 39944
new line.CTR186703 bus1=BMT125214793.2,bus2=BMT125214821.2,Phases=1,LineCode=tieSwitch1,Length=0.001,Units=km,switch=T !numEQ 39606
new line.CTR186710 bus1=BMT125214730.2,bus2=BMT125214877.2,Phases=1,LineCode=tieSwitch1,Length=0.001,Units=km,switch=T !numEQ 39608
new line.CTR186717 bus1=BMT125214387.1,bus2=BMT170647933.1,Phases=1,LineCode=tieSwitch1,Length=0.001,Units=km,switch=T !numEQ 39609
new line.CTR186955 bus1=BMT125210936.1.2.3,bus2=BMT125210943.1.2.3,Phases=3,LineCode=tieSwitch,Length=0.001,Units=km,switch=T !numEQ 39655
new line.CTR186962 bus1=BMT125215822.2,bus2=BMT168183418.2,Phases=1,LineCode=tieSwitch1,Length=0.001,Units=km,switch=T !numEQ 39656
new line.CTR186969 bus1=BMT125215829.2,bus2=BMT168183372.2,Phases=1,LineCode=tieSwitch1,Length=0.001,Units=km,switch=T !numEQ 39657
new line.CTR186983 bus1=BMT125218944.1,bus2=BMT149183223.1,Phases=1,LineCode=tieSwitch1,Length=0.001,Units=km,switch=T !numEQ 39659
new line.CTR186990 bus1=BMT125211139.3,bus2=BMT133122567.3,Phases=1,LineCode=tieSwitch1,Length=0.001,Units=km,switch=T !numEQ 39660
new line.CTR193794 bus1=BMT125216032.2,bus2=BMT168183379.2,Phases=1,LineCode=tieSwitch1,Length=0.001,Units=km,switch=T !numEQ 38471
new line.CTR193815 bus1=BMT120470683.3,bus2=BMT167928925.3,Phases=1,LineCode=tieSwitch1,Length=0.001,Units=km,switch=T !numEQ 38474
new line.CTR193822 bus1=BMT120470676.3,bus2=BMT167928976.3,Phases=1,LineCode=tieSwitch1,Length=0.001,Units=km,switch=T !numEQ 38475
new line.CTR193829 bus1=BMT120470711.3,bus2=BMT167928824.3,Phases=1,LineCode=tieSwitch1,Length=0.001,Units=km,switch=T !numEQ 38476
new line.CTR193836 bus1=BMT120471516.3,bus2=BMT169084851.3,Phases=1,LineCode=tieSwitch1,Length=0.001,Units=km,switch=T !numEQ 38477
new line.CTR193843 bus1=BMT120471593.3,bus2=BMT167928940.3,Phases=1,LineCode=tieSwitch1,Length=0.001,Units=km,switch=T !numEQ 38479
new line.CTR21384 bus1=BMT125212476.1,bus2=BMT164691349.1,Phases=1,LineCode=tieSwitch1,Length=0.001,Units=km,switch=T !numEQ 181828
new line.CTR217342 bus1=BMT120471047.3,bus2=BMT167928896.3,Phases=1,LineCode=tieSwitch1,Length=0.001,Units=km,switch=T !numEQ 179292
new line.CTR22434 bus1=BMT125221996.2,bus2=BMT150758482.2,Phases=1,LineCode=tieSwitch1,Length=0.001,Units=km,switch=T !numEQ 159418
new line.CTR238041 bus1=BMT172897887.1.2.3,bus2=BMT125208899.1.2.3,Phases=3,LineCode=tieSwitch,Length=0.001,Units=km,switch=T !numEQ 195463
open line.CTR238041 term=1
new line.CTR23813 bus1=BMT125215885.2,bus2=BMT168183426.2,Phases=1,LineCode=tieSwitch1,Length=0.001,Units=km,switch=T !numEQ 178897
new line.CTR23820 bus1=BMT125215927.2,bus2=BMT168183430.2,Phases=1,LineCode=tieSwitch1,Length=0.001,Units=km,switch=T !numEQ 178898
new line.CTR23827 bus1=BMT125223844.3,bus2=BMT153694274.3,Phases=1,LineCode=tieSwitch1,Length=0.001,Units=km,switch=T !numEQ 178901
new line.CTR23848 bus1=BMT125218034.3,bus2=BMT125218041.3,Phases=1,LineCode=tieSwitch1,Length=0.001,Units=km,switch=T !numEQ 178906
new line.CTR23855 bus1=BMT125222899.2,bus2=BMT125222927.2,Phases=1,LineCode=tieSwitch1,Length=0.001,Units=km,switch=T !numEQ 178907
new line.CTR23967 bus1=BMT125210229.3,bus2=BMT161012024.3,Phases=1,LineCode=tieSwitch1,Length=0.001,Units=km,switch=T !numEQ 179024
new line.CTR244355 bus1=BMT148521963.1.2.3,bus2=BMT125208976.1.2.3,Phases=3,LineCode=tieSwitch,Length=0.001,Units=km,switch=T !numEQ 195470
open line.CTR244355 term=1
new line.CTR244474 bus1=BMT125208766.1.2.3,bus2=BMT165120417.1.2.3,Phases=3,LineCode=tieSwitch,Length=0.001,Units=km,switch=T !numEQ 195466
new line.CTR275393 bus1=BMT125220463.1,bus2=BMT160093642.1,Phases=1,LineCode=tieSwitch1,Length=0.001,Units=km,switch=T !numEQ 178900
new line.CTR288875 bus1=BMT125210950.1,bus2=BMT125217488.1,Phases=1,LineCode=tieSwitch1,Length=0.001,Units=km,switch=T !numEQ 204174
new line.CTR288882 bus1=BMT125210985.3,bus2=BMT125217446.3,Phases=1,LineCode=tieSwitch1,Length=0.001,Units=km,switch=T !numEQ 192406
new line.CTR288889 bus1=BMT125223396.2,bus2=BMT134212649.2,Phases=1,LineCode=tieSwitch1,Length=0.001,Units=km,switch=T !numEQ 204176
new line.CTR110550 bus1=BMT120470018.3,bus2=BMT167928775.3,Phases=1,LineCode=tieSwitch1,Length=0.001,Units=km,switch=T !numEQ 93060
new line.CTR110557 bus1=BMT120470494.3,bus2=BMT167928810.3,Phases=1,LineCode=tieSwitch1,Length=0.001,Units=km,switch=T !numEQ 93062
new line.CTR111880 bus1=BMT125209704.1,bus2=BMT148520815.1,Phases=1,LineCode=tieSwitch1,Length=0.001,Units=km,switch=T !numEQ 90574
new line.CTR111887 bus1=BMT125209060.1.2.3,bus2=BMT172800894.1.2.3,Phases=3,LineCode=tieSwitch,Length=0.001,Units=km,switch=T !numEQ 90576
new line.CTR111894 bus1=BMT125209200.1.2.3,bus2=BMT162438663.1.2.3,Phases=3,LineCode=tieSwitch,Length=0.001,Units=km,switch=T !numEQ 90577
new line.CTR122688 bus1=BMT125208871.1.2.3,bus2=BMT125208885.1.2.3,Phases=3,LineCode=tieSwitch,Length=0.001,Units=km,switch=T !numEQ 195467
new line.CTR12347 bus1=BMT120471173.3,bus2=BMT167928892.3,Phases=1,LineCode=tieSwitch1,Length=0.001,Units=km,switch=T !numEQ 181297
new line.CTR12354 bus1=BMT120471138.3,bus2=BMT167928890.3,Phases=1,LineCode=tieSwitch1,Length=0.001,Units=km,switch=T !numEQ 181296
new line.CTR12977 bus1=BMT125208661.1.2.3,bus2=BMT170300428.1.2.3,Phases=3,LineCode=tieSwitch,Length=0.001,Units=km,switch=T !numEQ 132744
new line.CTR130962 bus1=BMT125211342.1,bus2=BMT164691202.1,Phases=1,LineCode=tieSwitch1,Length=0.001,Units=km,switch=T !numEQ 39945
new line.CTR13873 bus1=BMT125224481.1.2.3,bus2=BMT125224551.1.2.3,Phases=3,LineCode=tieSwitch,Length=0.001,Units=km,switch=T !numEQ 187644
new line.CTR15812 bus1=BMT125219560.1,bus2=BMT168572033.1,Phases=1,LineCode=tieSwitch1,Length=0.001,Units=km,switch=T !numEQ 145678
new line.CTR158276 bus1=BMT125209970.2,bus2=BMT172935020.2,Phases=1,LineCode=tieSwitch1,Length=0.001,Units=km,switch=T !numEQ 202892
new line.CTR181698 bus1=BMT125211594.1.2.3,bus2=BMT154065851.1.2.3,Phases=3,LineCode=tieSwitch,Length=0.001,Units=km,switch=T !numEQ 40389
new line.CTR181705 bus1=BMT125211650.1,bus2=BMT162514702.1,Phases=1,LineCode=tieSwitch1,Length=0.001,Units=km,switch=T !numEQ 40390
new line.CTR182034 bus1=BMT125209921.1.2.3,bus2=BMT125210068.1.2.3,Phases=3,LineCode=tieSwitch,Length=0.001,Units=km,switch=T !numEQ 40448
new line.CTR182041 bus1=BMT125210103.3,bus2=BMT132592821.3,Phases=1,LineCode=tieSwitch1,Length=0.001,Units=km,switch=T !numEQ 40449
new line.CTR193024 bus1=BMT125224488.1.2.3,bus2=BMT159810627.1.2.3,Phases=3,LineCode=tieSwitch,Length=0.001,Units=km,switch=T !numEQ 179091
new line.CTR20628 bus1=BMT125210957.1,bus2=BMT125217474.1,Phases=1,LineCode=tieSwitch1,Length=0.001,Units=km,switch=T !numEQ 182067
new line.CTR20670 bus1=BMT125215549.2,bus2=BMT168986763.2,Phases=1,LineCode=tieSwitch1,Length=0.001,Units=km,switch=T !numEQ 182088
new line.CTR226414 bus1=BMT125211657.1,bus2=BMT164750433.1,Phases=1,LineCode=tieSwitch1,Length=0.001,Units=km,switch=T !numEQ 192420
new line.CTR260539 bus1=BMT170300431.1.2.3,bus2=BMT6283759.1.2.3,Phases=3,LineCode=tieSwitch,Length=0.001,Units=km,switch=T !numEQ 132747
open line.CTR260539 term=1
new line.CTR261183 bus1=BMT125209011.3,bus2=BMT132591253.3,Phases=1,LineCode=tieSwitch1,Length=0.001,Units=km,switch=T !numEQ 132698
new line.CTR261610 bus1=BMT120470508.3,bus2=BMT167928986.3,Phases=1,LineCode=tieSwitch1,Length=0.001,Units=km,switch=T !numEQ 109039
new line.CTR269345 bus1=BMT125213855.1.2.3,bus2=BMT172504762.1.2.3,Phases=3,LineCode=tieSwitch,Length=0.001,Units=km,switch=T !numEQ 132958
new line.CTR269457 bus1=BMT150073844.3,bus2=BMT150073845.3,Phases=1,LineCode=tieSwitch1,Length=0.001,Units=km,switch=T !numEQ 156722
new line.CTR279124 bus1=BMT125222066.2,bus2=BMT125222465.2,Phases=1,LineCode=tieSwitch1,Length=0.001,Units=km,switch=T !numEQ 156929
new line.CTR279208 bus1=BMT125222017.2,bus2=BMT125222479.2,Phases=1,LineCode=tieSwitch1,Length=0.001,Units=km,switch=T !numEQ 157446
new line.CTR279215 bus1=BMT125222563.2,bus2=BMT125222584.2,Phases=1,LineCode=tieSwitch1,Length=0.001,Units=km,switch=T !numEQ 176829
new line.CTR279446 bus1=BMT125218839.1,bus2=BMT170188816.1,Phases=1,LineCode=tieSwitch1,Length=0.001,Units=km,switch=T !numEQ 178216
new line.CTR279453 bus1=BMT125218825.1,bus2=BMT125221499.1,Phases=1,LineCode=tieSwitch1,Length=0.001,Units=km,switch=T !numEQ 178215
new line.CTR279460 bus1=BMT125220442.1,bus2=BMT149185023.1,Phases=1,LineCode=tieSwitch1,Length=0.001,Units=km,switch=T !numEQ 157273
new line.CTR279467 bus1=BMT125220512.1,bus2=BMT149185035.1,Phases=1,LineCode=tieSwitch1,Length=0.001,Units=km,switch=T !numEQ 157384
new line.CTR280748 bus1=BMT125209690.1.2.3,bus2=BMT163518959.1.2.3,Phases=3,LineCode=tieSwitch,Length=0.001,Units=km,switch=T !numEQ 187677
new line.CTR281924 bus1=BMT125212959.1,bus2=BMT164691264.1,Phases=1,LineCode=tieSwitch1,Length=0.001,Units=km,switch=T !numEQ 156716
new line.CTR282141 bus1=BMT170800213.1.2.3,bus2=BMT5665337.1.2.3,Phases=3,LineCode=tieSwitch,Length=0.001,Units=km,switch=T !numEQ 132156
open line.CTR282141 term=1
new line.CTR285487 bus1=BMT125211349.1.2.3,bus2=BMT164727452.1.2.3,Phases=3,LineCode=tieSwitch,Length=0.001,Units=km,switch=T !numEQ 204128
new line.CTR285606 bus1=BMT125211636.1.2.3,bus2=BMT147690631.1.2.3,Phases=3,LineCode=tieSwitch,Length=0.001,Units=km,switch=T !numEQ 204129
new line.CTR286978 bus1=BMT125218251.1,bus2=BMT164874214.1,Phases=1,LineCode=tieSwitch1,Length=0.001,Units=km,switch=T !numEQ 204113
new line.CTR286985 bus1=BMT125218265.1,bus2=BMT164381767.1,Phases=1,LineCode=tieSwitch1,Length=0.001,Units=km,switch=T !numEQ 204114
new line.CTR286992 bus1=BMT125219189.1,bus2=BMT159298763.1,Phases=1,LineCode=tieSwitch1,Length=0.001,Units=km,switch=T !numEQ 204116
new line.CTR287552 bus1=BMT172560871.1.2.3,bus2=BMT125209564.1.2.3,Phases=3,LineCode=tieSwitch,Length=0.001,Units=km,switch=T !numEQ 213494
open line.CTR287552 term=1
new line.CTR288063 bus1=BMT125213869.2,bus2=BMT133364599.2,Phases=1,LineCode=tieSwitch1,Length=0.001,Units=km,switch=T !numEQ 200376
new line.CTR2883 bus1=BMT125212833.1,bus2=BMT164691254.1,Phases=1,LineCode=tieSwitch1,Length=0.001,Units=km,switch=T !numEQ 203138
new line.CTR29994 bus1=BMT125217026.3,bus2=BMT125217159.3,Phases=1,LineCode=tieSwitch1,Length=0.001,Units=km,switch=T !numEQ 176983
new line.CTR31653 bus1=BMT125221709.2,bus2=BMT166028285.2,Phases=1,LineCode=tieSwitch1,Length=0.001,Units=km,switch=T !numEQ 176671
new line.CTR316609 bus1=BMT125208738.1.2.3,bus2=BMT125224789.1.2.3,Phases=3,LineCode=tieSwitch,Length=0.001,Units=km,switch=T !numEQ 225074
new line.CTR318961 bus1=BMT125218811.1,bus2=BMT125221513.1,Phases=1,LineCode=tieSwitch1,Length=0.001,Units=km,switch=T !numEQ 220865
new line.CTR273111 bus1=BMT125222549.2,bus2=BMT125222752.2,Phases=1,LineCode=tieSwitch1,Length=0.001,Units=km,switch=T !numEQ 177050
new line.CTR276254 bus1=BMT125218930.1,bus2=BMT125218937.1,Phases=1,LineCode=tieSwitch1,Length=0.001,Units=km,switch=T !numEQ 206789
new line.CTR277710 bus1=BMT130525196.1.2.3,bus2=BMT125208941.1.2.3,Phases=3,LineCode=tieSwitch,Length=0.001,Units=km,switch=T !numEQ 195468
new line.CTR277717 bus1=BMT125208962.1,bus2=BMT154131827.1,Phases=1,LineCode=tieSwitch1,Length=0.001,Units=km,switch=T !numEQ 132160
new line.CTR277829 bus1=BMT125209991.2,bus2=BMT163644238.2,Phases=1,LineCode=tieSwitch1,Length=0.001,Units=km,switch=T !numEQ 132424
new line.CTR278788 bus1=BMT125219637.1,bus2=BMT149185058.1,Phases=1,LineCode=tieSwitch1,Length=0.001,Units=km,switch=T !numEQ 177377
new line.CTR278886 bus1=BMT125212616.1,bus2=BMT164691403.1,Phases=1,LineCode=tieSwitch1,Length=0.001,Units=km,switch=T !numEQ 178214
new line.CTR278893 bus1=BMT125217957.3,bus2=BMT125218055.3,Phases=1,LineCode=tieSwitch1,Length=0.001,Units=km,switch=T !numEQ 159417
new line.CTR28251 bus1=BMT120471887.3,bus2=BMT167928801.3,Phases=1,LineCode=tieSwitch1,Length=0.001,Units=km,switch=T !numEQ 177862
new line.CTR282932 bus1=BMT5636056.1.2.3,bus2=BMT170996380.1.2.3,Phases=3,LineCode=tieSwitch,Length=0.001,Units=km,switch=T !numEQ 195473
new line.CTR283002 bus1=BMT134908463.1.2.3,bus2=BMT3528832.1.2.3,Phases=3,LineCode=tieSwitch,Length=0.001,Units=km,switch=T !numEQ 90584
open line.CTR283002 term=1
new line.CTR283044 bus1=BMT125210558.1.2.3,bus2=BMT172897885.1.2.3,Phases=3,LineCode=tieSwitch,Length=0.001,Units=km,switch=T !numEQ 195472
new line.CTR283380 bus1=BMT120470900.3,bus2=BMT167928870.3,Phases=1,LineCode=tieSwitch1,Length=0.001,Units=km,switch=T !numEQ 179291
new line.CTR283387 bus1=BMT120471292.3,bus2=BMT167928906.3,Phases=1,LineCode=tieSwitch1,Length=0.001,Units=km,switch=T !numEQ 179293
new line.CTR283394 bus1=BMT120471061.3,bus2=BMT167928876.3,Phases=1,LineCode=tieSwitch1,Length=0.001,Units=km,switch=T !numEQ 179294
new line.CTR283401 bus1=BMT120471117.3,bus2=BMT167928886.3,Phases=1,LineCode=tieSwitch1,Length=0.001,Units=km,switch=T !numEQ 179295
new line.CTR284514 bus1=BMT125210761.1,bus2=BMT125223802.1,Phases=1,LineCode=tieSwitch1,Length=0.001,Units=km,switch=T !numEQ 203081
new line.CTR28496 bus1=BMT125221856.2,bus2=BMT125222955.2,Phases=1,LineCode=tieSwitch1,Length=0.001,Units=km,switch=T !numEQ 177423
new line.CTR28503 bus1=BMT125222962.2,bus2=BMT151626175.2,Phases=1,LineCode=tieSwitch1,Length=0.001,Units=km,switch=T !numEQ 177424
new line.CTR28510 bus1=BMT125222983.2,bus2=BMT125223032.2,Phases=1,LineCode=tieSwitch1,Length=0.001,Units=km,switch=T !numEQ 177425
new line.CTR2925 bus1=BMT125211923.1,bus2=BMT164691436.1,Phases=1,LineCode=tieSwitch1,Length=0.001,Units=km,switch=T !numEQ 203143
new line.CTR2932 bus1=BMT125212007.1,bus2=BMT164691448.1,Phases=1,LineCode=tieSwitch1,Length=0.001,Units=km,switch=T !numEQ 203144
new line.CTR293558 bus1=BMT125211174.1.2.3,bus2=BMT164953605.1.2.3,Phases=3,LineCode=tieSwitch,Length=0.001,Units=km,switch=T !numEQ 217771
new line.CTR293866 bus1=BMT125209977.2,bus2=BMT148253206.2,Phases=1,LineCode=tieSwitch1,Length=0.001,Units=km,switch=T !numEQ 211710
new line.CTR294160 bus1=BMT125219357.1,bus2=BMT149201531.1,Phases=1,LineCode=tieSwitch1,Length=0.001,Units=km,switch=T !numEQ 204117
new line.CTR294188 bus1=BMT125219574.1,bus2=BMT167249423.1,Phases=1,LineCode=tieSwitch1,Length=0.001,Units=km,switch=T !numEQ 204118
new line.CTR294195 bus1=BMT125219777.1,bus2=BMT156220108.1,Phases=1,LineCode=tieSwitch1,Length=0.001,Units=km,switch=T !numEQ 215691
new line.CTR307432 bus1=BMT120470438.3,bus2=BMT167928793.3,Phases=1,LineCode=tieSwitch1,Length=0.001,Units=km,switch=T !numEQ 215513