new load.3001308644M1 bus1=RML201156595.3.0,Phases=1,kv=0.127,kW=0.49096,pf=0.92,Vminpu=0.92,Vmaxpu=1.5,model=1,daily=RES1_2,status=variable
new load.3001308645M1 bus1=RML201156588.2.3.0,Phases=2,kv=0.22,kW=1.86092,pf=0.92,Vminpu=0.92,Vmaxpu=1.5,model=1,daily=RES2_2,status=variable
new load.3001308646M1 bus1=RML201156574.2.0,Phases=1,kv=0.127,kW=0.44186,pf=0.92,Vminpu=0.92,Vmaxpu=1.5,model=1,daily=RES1_2,status=variable
new load.3001308647M1 bus1=RML201156567.1.0,Phases=1,kv=0.127,kW=0.53426,pf=0.92,Vminpu=0.92,Vmaxpu=1.5,model=1,daily=RES1_17,status=variable
new load.3001308648M1 bus1=RML201156553.1.2.0,Phases=2,kv=0.22,kW=1.0302,pf=0.92,Vminpu=0.92,Vmaxpu=1.5,model=1,daily=RES1_1,status=variable
new load.3001308665M1 bus1=RML201156749.2.0,Phases=1,kv=0.127,kW=0.77716,pf=0.92,Vminpu=0.92,Vmaxpu=1.5,model=1,daily=RES2_20,status=variable
new load.3001308667M1 bus1=RML206748697.1.2.0,Phases=2,kv=0.22,kW=0.021,pf=0.92,Vminpu=0.92,Vmaxpu=1.5,model=1,daily=RES1_16,status=variable
new load.3001308688M1 bus1=RML201156812.1.0,Phases=1,kv=0.127,kW=0.33428,pf=0.92,Vminpu=0.92,Vmaxpu=1.5,model=1,daily=RES1_23,status=variable
new load.3001308689M1 bus1=RML201156777.3.0,Phases=1,kv=0.127,kW=0.54006,pf=0.92,Vminpu=0.92,Vmaxpu=1.5,model=1,daily=RES1_2,status=variable
new load.3001308690M1 bus1=RML201156784.1.0,Phases=1,kv=0.127,kW=0.7771,pf=0.92,Vminpu=0.92,Vmaxpu=1.5,model=1,daily=RES1_14,status=variable
new load.3001308691M1 bus1=RML210936411.1.2.0,Phases=2,kv=0.22,kW=2.10042,pf=0.92,Vminpu=0.92,Vmaxpu=1.5,model=1,daily=RES1_6,status=variable
new load.3001308692M1 bus1=RML201156805.3.0,Phases=1,kv=0.127,kW=0.64806,pf=0.92,Vminpu=0.92,Vmaxpu=1.5,model=1,daily=RES2_1,status=variable
new load.3001308693M1 bus1=RML201156819.2.0,Phases=1,kv=0.127,kW=0.47178,pf=0.92,Vminpu=0.92,Vmaxpu=1.5,model=1,daily=RES2_17,status=variable
new load.3001308694M1 bus1=RML210107696.1.0,Phases=1,kv=0.127,kW=1.76176,pf=0.92,Vminpu=0.92,Vmaxpu=1.5,model=1,daily=RES2_3,status=variable
new load.3001308695M1 bus1=RML201156560.3.0,Phases=1,kv=0.127,kW=0.4124,pf=0.92,Vminpu=0.92,Vmaxpu=1.5,model=1,daily=RES1_2,status=variable
new load.3001308696M1 bus1=RML201156581.1.3.0,Phases=2,kv=0.22,kW=1.20154,pf=0.92,Vminpu=0.92,Vmaxpu=1.5,model=1,daily=RES2_7,status=variable
new load.3001308935M1 bus1=RML201156868.2.0,Phases=1,kv=0.127,kW=0.81282,pf=0.92,Vminpu=0.92,Vmaxpu=1.5,model=1,daily=RES2_14,status=variable
new load.3001309101M1 bus1=RML201101708.1.0,Phases=1,kv=0.127,kW=0.28254,pf=0.92,Vminpu=0.92,Vmaxpu=1.5,model=1,daily=RES1_17,status=variable
new load.3001309102M1 bus1=RML201101701.2.0,Phases=1,kv=0.127,kW=1.52856,pf=0.92,Vminpu=0.92,Vmaxpu=1.5,model=1,daily=RES3_4,status=variable
new load.3001309103M1 bus1=RML210736164.1.2.3.0,Phases=3,kv=0.22,kW=0.67996,pf=0.92,Vminpu=0.92,Vmaxpu=1.5,model=1,daily=RES2_2,status=variable
new load.3001309104M1 bus1=RML201101827.2.0,Phases=1,kv=0.127,kW=0.67278,pf=0.92,Vminpu=0.92,Vmaxpu=1.5,model=1,daily=RES1_1,status=variable
new load.3001309105M1 bus1=RML201101820.1.0,Phases=1,kv=0.127,kW=0.88374,pf=0.92,Vminpu=0.92,Vmaxpu=1.5,model=1,daily=RES1_2,status=variable
new load.3001309106M1 bus1=RML201101813.2.0,Phases=1,kv=0.127,kW=0.60628,pf=0.92,Vminpu=0.92,Vmaxpu=1.5,model=1,daily=RES2_10,status=variable
new load.3001309107M1 bus1=RML201101862.1.0,Phases=1,kv=0.127,kW=2.354,pf=0.92,Vminpu=0.92,Vmaxpu=1.5,model=1,daily=RES3_15,status=variable
new load.3001308547M1 bus1=RML201141496.1.2.0,Phases=2,kv=0.22,kW=0.75814,pf=0.92,Vminpu=0.92,Vmaxpu=1.5,model=1,daily=COM1_12,status=variable
new load.3001308548M1 bus1=RML201141503.2.0,Phases=1,kv=0.127,kW=0.89736,pf=0.92,Vminpu=0.92,Vmaxpu=1.5,model=1,daily=RES2_19,status=variable
new load.3001308549M1 bus1=RML201141475.1.0,Phases=1,kv=0.127,kW=1.52822,pf=0.92,Vminpu=0.92,Vmaxpu=1.5,model=1,daily=RES2_4,status=variable
new load.3001308550M1 bus1=RML203144469.1.2.3.0,Phases=3,kv=0.22,kW=1.12072,pf=0.92,Vminpu=0.92,Vmaxpu=1.5,model=1,daily=COM1_16,status=variable
new load.3001308559M1 bus1=RML201141545.3.0,Phases=1,kv=0.127,kW=0.70062,pf=0.92,Vminpu=0.92,Vmaxpu=1.5,model=1,daily=COM1_5,status=variable
new load.3001308564M1 bus1=RML201141678.1.2.3.0,Phases=3,kv=0.22,kW=0.60046,pf=0.92,Vminpu=0.92,Vmaxpu=1.5,model=1,daily=COM1_8,status=variable
new load.3001309080M1 bus1=RML201100546.3.0,Phases=1,kv=0.127,kW=0.80206,pf=0.92,Vminpu=0.92,Vmaxpu=1.5,model=1,daily=RES1_8,status=variable
new load.3001309082M1 bus1=RML201100532.2.3.0,Phases=2,kv=0.22,kW=0.64936,pf=0.92,Vminpu=0.92,Vmaxpu=1.5,model=1,daily=RES2_25,status=variable
new load.3001309083M1 bus1=RML201100525.2.3.0,Phases=2,kv=0.22,kW=0.23938,pf=0.92,Vminpu=0.92,Vmaxpu=1.5,model=1,daily=RES1_20,status=variable
new load.3001309084M1 bus1=RML201100504.1.2.3.0,Phases=3,kv=0.22,kW=0.6884,pf=0.92,Vminpu=0.92,Vmaxpu=1.5,model=1,daily=RES2_17,status=variable
new load.3001309086M1 bus1=RML201100511.1.2.0,Phases=2,kv=0.22,kW=1.92868,pf=0.92,Vminpu=0.92,Vmaxpu=1.5,model=1,daily=RES3_5,status=variable
new load.3001309087M1 bus1=RML201100462.2.3.0,Phases=2,kv=0.22,kW=1.97806,pf=0.92,Vminpu=0.92,Vmaxpu=1.5,model=1,daily=COM2_3,status=variable
new load.3001309088M1 bus1=RML201100441.3.0,Phases=1,kv=0.127,kW=3.12264,pf=0.92,Vminpu=0.92,Vmaxpu=1.5,model=1,daily=RES1_5,status=variable
new load.3001309089M1 bus1=RML201100448.3.0,Phases=1,kv=0.127,kW=0.33386,pf=0.92,Vminpu=0.92,Vmaxpu=1.5,model=1,daily=RES1_2,status=variable
new load.3001309090M1 bus1=RML201100455.1.3.0,Phases=2,kv=0.22,kW=3.00648,pf=0.92,Vminpu=0.92,Vmaxpu=1.5,model=1,daily=RES4_3,status=variable
new load.3001309092M1 bus1=RML201100427.1.2.3.0,Phases=3,kv=0.22,kW=1.00114,pf=0.92,Vminpu=0.92,Vmaxpu=1.5,model=1,daily=RES3_11,status=variable
new load.3001309094M1 bus1=RML201100406.1.2.3.0,Phases=3,kv=0.22,kW=0.51028,pf=0.92,Vminpu=0.92,Vmaxpu=1.5,model=1,daily=RES1_6,status=variable
new load.3001309095M1 bus1=RML201100413.2.0,Phases=1,kv=0.127,kW=0.02946,pf=0.92,Vminpu=0.92,Vmaxpu=1.5,model=1,daily=RES1_2,status=variable
new load.3001309097M1 bus1=RML203158357.1.2.3.0,Phases=3,kv=0.22,kW=0.95184,pf=0.92,Vminpu=0.92,Vmaxpu=1.5,model=1,daily=RES2_5,status=variable
new load.3001309098M1 bus1=RML201100385.1.0,Phases=1,kv=0.127,kW=0.70298,pf=0.92,Vminpu=0.92,Vmaxpu=1.5,model=1,daily=RES1_11,status=variable
new load.3001309074M1 bus1=RML201104221.1.0,Phases=1,kv=0.127,kW=0.70528,pf=0.92,Vminpu=0.92,Vmaxpu=1.5,model=1,daily=RES3_12,status=variable
new load.3001309076M1 bus1=RML201104228.1.2.0,Phases=2,kv=0.22,kW=0.5216,pf=0.92,Vminpu=0.92,Vmaxpu=1.5,model=1,daily=COM1_13,status=variable
new load.3001309040M1 bus1=RML201106748.1.2.3.0,Phases=3,kv=0.22,kW=1.08966,pf=0.92,Vminpu=0.92,Vmaxpu=1.5,model=1,daily=IND1_3,status=variable
new load.3001309042M1 bus1=RML201106699.3.0,Phases=1,kv=0.127,kW=0.19638,pf=0.92,Vminpu=0.92,Vmaxpu=1.5,model=1,daily=RES1_2,status=variable
new load.3001309043M1 bus1=RML201106706.2.0,Phases=1,kv=0.127,kW=0.38188,pf=0.92,Vminpu=0.92,Vmaxpu=1.5,model=1,daily=RES1_20,status=variable
new load.3001309044M1 bus1=RML201106671.2.3.0,Phases=2,kv=0.22,kW=1.99044,pf=0.92,Vminpu=0.92,Vmaxpu=1.5,model=1,daily=COM2_3,status=variable
new load.3001309055M1 bus1=RML201108855.1.2.0,Phases=2,kv=0.22,kW=0.62264,pf=0.92,Vminpu=0.92,Vmaxpu=1.5,model=1,daily=RES1_11,status=variable
new load.3001309057M1 bus1=RML203344473.1.2.0,Phases=2,kv=0.22,kW=1.53652,pf=0.92,Vminpu=0.92,Vmaxpu=1.5,model=1,daily=RES1_11,status=variable
new load.3001309058M1 bus1=RML203344473.1.2.0,Phases=2,kv=0.22,kW=0.25516,pf=0.92,Vminpu=0.92,Vmaxpu=1.5,model=1,daily=COM1_10,status=variable
new load.3001309060M1 bus1=RML201108911.1.2.0,Phases=2,kv=0.22,kW=1.30168,pf=0.92,Vminpu=0.92,Vmaxpu=1.5,model=1,daily=RES1_8,status=variable
new load.3001309061M1 bus1=RML201108904.3.0,Phases=1,kv=0.127,kW=2.8065,pf=0.92,Vminpu=0.92,Vmaxpu=1.5,model=1,daily=RES1_13,status=variable
new load.3001309062M1 bus1=RML201108967.2.0,Phases=1,kv=0.127,kW=0.4368,pf=0.92,Vminpu=0.92,Vmaxpu=1.5,model=1,daily=COM1_12,status=variable
new load.3001309063M1 bus1=RML203340861.1.2.0,Phases=2,kv=0.22,kW=0.7013,pf=0.92,Vminpu=0.92,Vmaxpu=1.5,model=1,daily=RES1_3,status=variable
new load.3001309066M1 bus1=RML201109023.2.0,Phases=1,kv=0.127,kW=0.045,pf=0.92,Vminpu=0.92,Vmaxpu=1.5,model=1,daily=RES1_23,status=variable
new load.3001309068M1 bus1=RML201109016.3.0,Phases=1,kv=0.127,kW=0.10194,pf=0.92,Vminpu=0.92,Vmaxpu=1.5,model=1,daily=RES1_18,status=variable
new load.3001309070M1 bus1=RML201108932.1.3.0,Phases=2,kv=0.22,kW=0.82008,pf=0.92,Vminpu=0.92,Vmaxpu=1.5,model=1,daily=RES1_25,status=variable
new load.3001309071M1 bus1=RML203158490.3.0,Phases=1,kv=0.127,kW=1.01934,pf=0.92,Vminpu=0.92,Vmaxpu=1.5,model=1,daily=RES2_10,status=variable
new load.3001309072M1 bus1=RML201108981.1.0,Phases=1,kv=0.127,kW=0.1799,pf=0.92,Vminpu=0.92,Vmaxpu=1.5,model=1,daily=RES1_18,status=variable
new load.3001309073M1 bus1=RML201108974.1.2.0,Phases=2,kv=0.22,kW=1.60154,pf=0.92,Vminpu=0.92,Vmaxpu=1.5,model=1,daily=RES3_10,status=variable
new load.3001309010M1 bus1=RML201108960.1.2.3.0,Phases=3,kv=0.22,kW=1.04108,pf=0.92,Vminpu=0.92,Vmaxpu=1.5,model=1,daily=RES2_11,status=variable
new load.3001309011M1 bus1=RML201108953.1.2.3.0,Phases=3,kv=0.22,kW=0.9508,pf=0.92,Vminpu=0.92,Vmaxpu=1.5,model=1,daily=RES2_6,status=variable
new load.3001309012M1 bus1=RML201108946.1.2.3.0,Phases=3,kv=0.22,kW=1.39452,pf=0.92,Vminpu=0.92,Vmaxpu=1.5,model=1,daily=RES4_19,status=variable
new load.3001309013M1 bus1=RML201108918.1.2.3.0,Phases=3,kv=0.22,kW=1.09916,pf=0.92,Vminpu=0.92,Vmaxpu=1.5,model=1,daily=COM1_7,status=variable
new load.3001309015M1 bus1=RML201108876.1.0,Phases=1,kv=0.127,kW=0.51636,pf=0.92,Vminpu=0.92,Vmaxpu=1.5,model=1,daily=COM1_15,status=variable
new load.3001309016M1 bus1=RML201108883.3.0,Phases=1,kv=0.127,kW=0.13314,pf=0.92,Vminpu=0.92,Vmaxpu=1.5,model=1,daily=COM1_20,status=variable
new load.3001309017M1 bus1=RML201108820.1.3.0,Phases=2,kv=0.22,kW=2.10144,pf=0.92,Vminpu=0.92,Vmaxpu=1.5,model=1,daily=COM2_13,status=variable
new load.3001309018M1 bus1=RML201108743.1.0,Phases=1,kv=0.127,kW=0.53008,pf=0.92,Vminpu=0.92,Vmaxpu=1.5,model=1,daily=RES1_20,status=variable
new load.3001309019M1 bus1=RML203158350.1.0,Phases=1,kv=0.127,kW=0.25164,pf=0.92,Vminpu=0.92,Vmaxpu=1.5,model=1,daily=RES1_7,status=variable
new load.3001309024M1 bus1=RML201108764.2.0,Phases=1,kv=0.127,kW=1.06452,pf=0.92,Vminpu=0.92,Vmaxpu=1.5,model=1,daily=RES1_11,status=variable
new load.3001309025M1 bus1=RML201108736.1.2.3.0,Phases=3,kv=0.22,kW=1.43274,pf=0.92,Vminpu=0.92,Vmaxpu=1.5,model=1,daily=RES1_5,status=variable
new load.3001309027M1 bus1=RML201108750.1.2.3.0,Phases=3,kv=0.22,kW=0.48082,pf=0.92,Vminpu=0.92,Vmaxpu=1.5,model=1,daily=RES3_18,status=variable
new load.3001309028M1 bus1=RML201108771.3.0,Phases=1,kv=0.127,kW=0.02262,pf=0.92,Vminpu=0.92,Vmaxpu=1.5,model=1,daily=RES3_3,status=variable
new load.3001309033M1 bus1=RML203707885.1.2.3.0,Phases=3,kv=0.22,kW=4.74262,pf=0.92,Vminpu=0.92,Vmaxpu=1.5,model=1,daily=IND2_14,status=variable
new load.3001309036M1 bus1=RML201108834.1.2.3.0,Phases=3,kv=0.22,kW=0.81746,pf=0.92,Vminpu=0.92,Vmaxpu=1.5,model=1,daily=RES2_5,status=variable
new load.3001309037M1 bus1=RML201108785.2.3.0,Phases=2,kv=0.22,kW=0.3564,pf=0.92,Vminpu=0.92,Vmaxpu=1.5,model=1,daily=RES1_3,status=variable
new load.3001308895M1 bus1=RML201129715.2.0,Phases=1,kv=0.12,kW=0.46926,pf=0.92,Vminpu=0.92,Vmaxpu=1.5,model=1,daily=RES1_23,status=variable
new load.3001308974M1 bus1=RML201129736.2.0,Phases=1,kv=0.12,kW=0.0108,pf=0.92,Vminpu=0.92,Vmaxpu=1.5,model=1,daily=RES1_14,status=variable
new load.3001308757M1 bus1=RML201129722.1.0,Phases=1,kv=0.12,kW=0.62998,pf=0.92,Vminpu=0.92,Vmaxpu=1.5,model=1,daily=RES1_23,status=variable
new load.3001308758M1 bus1=RML201129652.1.0,Phases=1,kv=0.12,kW=0.95454,pf=0.92,Vminpu=0.92,Vmaxpu=1.5,model=1,daily=RES2_20,status=variable
new load.3001308770M1 bus1=RML201129729.2.0,Phases=1,kv=0.12,kW=0.05234,pf=0.92,Vminpu=0.92,Vmaxpu=1.5,model=1,daily=RES1_25,status=variable
new load.3001308771M1 bus1=RML201129708.2.0,Phases=1,kv=0.12,kW=0.2812,pf=0.92,Vminpu=0.92,Vmaxpu=1.5,model=1,daily=RES1_11,status=variable
new load.3001308772M1 bus1=RML201129813.2.0,Phases=1,kv=0.12,kW=0.6495,pf=0.92,Vminpu=0.92,Vmaxpu=1.5,model=1,daily=RES2_5,status=variable
new load.3001308773M1 bus1=RML201129806.2.0,Phases=1,kv=0.12,kW=0.51292,pf=0.92,Vminpu=0.92,Vmaxpu=1.5,model=1,daily=RES2_6,status=variable
new load.3001308779M1 bus1=RML201129939.1.0,Phases=1,kv=0.12,kW=0.26386,pf=0.92,Vminpu=0.92,Vmaxpu=1.5,model=1,daily=RES1_18,status=variable
new load.3001308849M1 bus1=RML201129904.2.0,Phases=1,kv=0.12,kW=0.88578,pf=0.92,Vminpu=0.92,Vmaxpu=1.5,model=1,daily=RES1_4,status=variable
new load.3001308850M1 bus1=RML201129946.2.0,Phases=1,kv=0.12,kW=0.2436,pf=0.92,Vminpu=0.92,Vmaxpu=1.5,model=1,daily=RES1_9,status=variable
new load.3001308851M1 bus1=RML201129925.2.0,Phases=1,kv=0.12,kW=1.23026,pf=0.92,Vminpu=0.92,Vmaxpu=1.5,model=1,daily=RES2_4,status=variable
new load.3001308872M1 bus1=RML201129897.2.0,Phases=1,kv=0.12,kW=0.66772,pf=0.92,Vminpu=0.92,Vmaxpu=1.5,model=1,daily=RES1_2,status=variable
new load.3001308887M1 bus1=RML201129610.1.0,Phases=1,kv=0.12,kW=0.52072,pf=0.92,Vminpu=0.92,Vmaxpu=1.5,model=1,daily=RES2_5,status=variable
new load.3001308889M1 bus1=RML201129624.2.0,Phases=1,kv=0.12,kW=1.1194,pf=0.92,Vminpu=0.92,Vmaxpu=1.5,model=1,daily=RES1_2,status=variable
new load.3001308898M1 bus1=RML201129792.1.2.0,Phases=2,kv=0.24,kW=0.17392,pf=0.92,Vminpu=0.92,Vmaxpu=1.5,model=1,daily=RES1_18,status=variable
new load.3001308899M1 bus1=RML201129820.1.0,Phases=1,kv=0.12,kW=0.72888,pf=0.92,Vminpu=0.92,Vmaxpu=1.5,model=1,daily=RES1_7,status=variable
new load.3001308900M1 bus1=RML201130002.1.0,Phases=1,kv=0.12,kW=0.4164,pf=0.92,Vminpu=0.92,Vmaxpu=1.5,model=1,daily=RES2_28,status=variable
new load.3001308901M1 bus1=RML201130065.1.0,Phases=1,kv=0.12,kW=1.546,pf=0.92,Vminpu=0.92,Vmaxpu=1.5,model=1,daily=RES2_2,status=variable
new load.3001308902M1 bus1=RML201130114.1.0,Phases=1,kv=0.12,kW=0.40116,pf=0.92,Vminpu=0.92,Vmaxpu=1.5,model=1,daily=RES1_10,status=variable
new load.3001308903M1 bus1=RML201130079.1.0,Phases=1,kv=0.12,kW=1.28854,pf=0.92,Vminpu=0.92,Vmaxpu=1.5,model=1,daily=RES1_8,status=variable
new load.3001308915M1 bus1=RML201130177.1.0,Phases=1,kv=0.12,kW=0.5474,pf=0.92,Vminpu=0.92,Vmaxpu=1.5,model=1,daily=RES2_23,status=variable
new load.3001308916M1 bus1=RML201130170.2.0,Phases=1,kv=0.12,kW=0.77328,pf=0.92,Vminpu=0.92,Vmaxpu=1.5,model=1,daily=RES1_11,status=variable
new load.3001308917M1 bus1=RML201130072.1.0,Phases=1,kv=0.12,kW=1.55342,pf=0.92,Vminpu=0.92,Vmaxpu=1.5,model=1,daily=RES1_16,status=variable
new load.3001308918M1 bus1=RML201130086.2.0,Phases=1,kv=0.12,kW=0.21888,pf=0.92,Vminpu=0.92,Vmaxpu=1.5,model=1,daily=RES1_18,status=variable
new load.3001308919M1 bus1=RML201130093.2.0,Phases=1,kv=0.12,kW=1.20966,pf=0.92,Vminpu=0.92,Vmaxpu=1.5,model=1,daily=RES1_8,status=variable
new load.3001308920M1 bus1=RML201129911.2.0,Phases=1,kv=0.12,kW=0.9612,pf=0.92,Vminpu=0.92,Vmaxpu=1.5,model=1,daily=RES1_6,status=variable
new load.3001308921M1 bus1=RML201130100.1.0,Phases=1,kv=0.12,kW=0.60838,pf=0.92,Vminpu=0.92,Vmaxpu=1.5,model=1,daily=RES2_2,status=variable
new load.3001308923M1 bus1=RML201129687.1.0,Phases=1,kv=0.12,kW=0.5032,pf=0.92,Vminpu=0.92,Vmaxpu=1.5,model=1,daily=RES1_26,status=variable
new load.3001308924M1 bus1=RML201129694.1.0,Phases=1,kv=0.12,kW=1.3772,pf=0.92,Vminpu=0.92,Vmaxpu=1.5,model=1,daily=RES1_22,status=variable
new load.3001308925M1 bus1=RML201129701.1.0,Phases=1,kv=0.12,kW=1.14286,pf=0.92,Vminpu=0.92,Vmaxpu=1.5,model=1,daily=RES1_25,status=variable
new load.3001308926M1 bus1=RML201129659.2.0,Phases=1,kv=0.12,kW=1.10568,pf=0.92,Vminpu=0.92,Vmaxpu=1.5,model=1,daily=RES1_23,status=variable
new load.3001308929M1 bus1=RML201129638.2.0,Phases=1,kv=0.12,kW=0.11678,pf=0.92,Vminpu=0.92,Vmaxpu=1.5,model=1,daily=COM1_6,status=variable
new load.3001308930M1 bus1=RML201129617.1.0,Phases=1,kv=0.12,kW=1.70826,pf=0.92,Vminpu=0.92,Vmaxpu=1.5,model=1,daily=RES1_5,status=variable
new load.3001308931M1 bus1=RML201130443.2.0,Phases=1,kv=0.12,kW=0.29134,pf=0.92,Vminpu=0.92,Vmaxpu=1.5,model=1,daily=RES1_26,status=variable
new load.3001308932M1 bus1=RML201130415.1.0,Phases=1,kv=0.12,kW=0.42222,pf=0.92,Vminpu=0.92,Vmaxpu=1.5,model=1,daily=RES1_2,status=variable
new load.3001308934M1 bus1=RML201130513.2.0,Phases=1,kv=0.12,kW=1.13076,pf=0.92,Vminpu=0.92,Vmaxpu=1.5,model=1,daily=RES1_8,status=variable
new load.3001308892M1 bus1=RML201130359.2.0,Phases=1,kv=0.12,kW=0.37018,pf=0.92,Vminpu=0.92,Vmaxpu=1.5,model=1,daily=RES2_23,status=variable
new load.3001308888M1 bus1=RML201130338.1.0,Phases=1,kv=0.12,kW=0.0224,pf=0.92,Vminpu=0.92,Vmaxpu=1.5,model=1,daily=RES2_5,status=variable
new load.3001308869M1 bus1=RML201130709.1.0,Phases=1,kv=0.12,kW=0.51734,pf=0.92,Vminpu=0.92,Vmaxpu=1.5,model=1,daily=RES1_3,status=variable
new load.3001308870M1 bus1=RML205821092.2.0,Phases=1,kv=0.12,kW=0.85018,pf=0.92,Vminpu=0.92,Vmaxpu=1.5,model=1,daily=RES1_16,status=variable
new load.3001308866M1 bus1=RML201130569.2.0,Phases=1,kv=0.12,kW=0.13746,pf=0.92,Vminpu=0.92,Vmaxpu=1.5,model=1,daily=RES1_2,status=variable
new load.3001308867M1 bus1=RML201130429.1.0,Phases=1,kv=0.12,kW=1.3897,pf=0.92,Vminpu=0.92,Vmaxpu=1.5,model=1,daily=RES1_15,status=variable
new load.3001308875M1 bus1=RML201130457.1.0,Phases=1,kv=0.12,kW=0.30486,pf=0.92,Vminpu=0.92,Vmaxpu=1.5,model=1,daily=RES1_1,status=variable
new load.3001308852M1 bus1=RML201130688.2.0,Phases=1,kv=0.12,kW=0.45686,pf=0.92,Vminpu=0.92,Vmaxpu=1.5,model=1,daily=RES1_10,status=variable
new load.3001308853M1 bus1=RML201130681.2.0,Phases=1,kv=0.12,kW=0.37514,pf=0.92,Vminpu=0.92,Vmaxpu=1.5,model=1,daily=RES2_5,status=variable
new load.3001308855M1 bus1=RML201130576.1.0,Phases=1,kv=0.12,kW=1.39324,pf=0.92,Vminpu=0.92,Vmaxpu=1.5,model=1,daily=COM1_23,status=variable
new load.3001308856M1 bus1=RML201130583.2.0,Phases=1,kv=0.12,kW=0.58632,pf=0.92,Vminpu=0.92,Vmaxpu=1.5,model=1,daily=RES1_3,status=variable
new load.3001308838M1 bus1=RML210885554.2.0,Phases=1,kv=0.12,kW=0.43908,pf=0.92,Vminpu=0.92,Vmaxpu=1.5,model=1,daily=RES1_6,status=variable
new load.3001308843M1 bus1=RML201130646.2.0,Phases=1,kv=0.12,kW=0.76622,pf=0.92,Vminpu=0.92,Vmaxpu=1.5,model=1,daily=RES1_16,status=variable
new load.3001308844M1 bus1=RML201130674.1.0,Phases=1,kv=0.12,kW=0.05698,pf=0.92,Vminpu=0.92,Vmaxpu=1.5,model=1,daily=RES1_18,status=variable
new load.3001308755M1 bus1=RML201130373.2.0,Phases=1,kv=0.12,kW=0.6833,pf=0.92,Vminpu=0.92,Vmaxpu=1.5,model=1,daily=RES1_1,status=variable
new load.3001308756M1 bus1=RML201130345.1.0,Phases=1,kv=0.12,kW=0.77226,pf=0.92,Vminpu=0.92,Vmaxpu=1.5,model=1,daily=RES1_7,status=variable
new load.3001308782M1 bus1=RML201130436.2.0,Phases=1,kv=0.12,kW=0.3238,pf=0.92,Vminpu=0.92,Vmaxpu=1.5,model=1,daily=RES1_14,status=variable
new load.3001308783M1 bus1=RML210755813.1.0,Phases=1,kv=0.12,kW=0.59846,pf=0.92,Vminpu=0.92,Vmaxpu=1.5,model=1,daily=RES1_20,status=variable
new load.3001308784M1 bus1=RML201130478.2.0,Phases=1,kv=0.12,kW=0.44016,pf=0.92,Vminpu=0.92,Vmaxpu=1.5,model=1,daily=RES1_10,status=variable
new load.3001308785M1 bus1=RML201130485.1.0,Phases=1,kv=0.12,kW=0.43386,pf=0.92,Vminpu=0.92,Vmaxpu=1.5,model=1,daily=RES1_7,status=variable
new load.3001308786M1 bus1=RML201130492.2.0,Phases=1,kv=0.12,kW=0.61862,pf=0.92,Vminpu=0.92,Vmaxpu=1.5,model=1,daily=RES1_2,status=variable
new load.3001308774M1 bus1=RML201130618.2.0,Phases=1,kv=0.12,kW=0.48274,pf=0.92,Vminpu=0.92,Vmaxpu=1.5,model=1,daily=RES2_25,status=variable
new load.3001308775M1 bus1=RML201130604.1.0,Phases=1,kv=0.12,kW=1.8473,pf=0.92,Vminpu=0.92,Vmaxpu=1.5,model=1,daily=RES1_16,status=variable
new load.3001308776M1 bus1=RML201130597.2.0,Phases=1,kv=0.12,kW=0.55222,pf=0.92,Vminpu=0.92,Vmaxpu=1.5,model=1,daily=RES2_19,status=variable
new load.3001308777M1 bus1=RML201130527.1.0,Phases=1,kv=0.12,kW=0.92846,pf=0.92,Vminpu=0.92,Vmaxpu=1.5,model=1,daily=RES1_13,status=variable
new load.3001308778M1 bus1=RML201130548.1.0,Phases=1,kv=0.12,kW=0.2395,pf=0.92,Vminpu=0.92,Vmaxpu=1.5,model=1,daily=RES1_21,status=variable
new load.3001308759M1 bus1=RML201130401.2.0,Phases=1,kv=0.12,kW=0.18314,pf=0.92,Vminpu=0.92,Vmaxpu=1.5,model=1,daily=COM1_21,status=variable
new load.3001308760M1 bus1=RML201130408.1.0,Phases=1,kv=0.12,kW=0.50594,pf=0.92,Vminpu=0.92,Vmaxpu=1.5,model=1,daily=RES2_16,status=variable
new load.3001308761M1 bus1=RML201130541.1.0,Phases=1,kv=0.12,kW=0.46864,pf=0.92,Vminpu=0.92,Vmaxpu=1.5,model=1,daily=RES2_23,status=variable
new load.3001308763M1 bus1=RML201130611.2.0,Phases=1,kv=0.12,kW=0.61862,pf=0.92,Vminpu=0.92,Vmaxpu=1.5,model=1,daily=RES1_2,status=variable
new load.3001308764M1 bus1=RML201130625.1.0,Phases=1,kv=0.12,kW=0.42222,pf=0.92,Vminpu=0.92,Vmaxpu=1.5,model=1,daily=RES1_2,status=variable
new load.3001308896M1 bus1=RML201130394.2.0,Phases=1,kv=0.12,kW=0.62898,pf=0.92,Vminpu=0.92,Vmaxpu=1.5,model=1,daily=RES2_24,status=variable
new load.3001308897M1 bus1=RML201130380.2.0,Phases=1,kv=0.12,kW=0.82326,pf=0.92,Vminpu=0.92,Vmaxpu=1.5,model=1,daily=RES1_24,status=variable
new load.3001308910M1 bus1=RML201130716.1.0,Phases=1,kv=0.12,kW=0.44152,pf=0.92,Vminpu=0.92,Vmaxpu=1.5,model=1,daily=RES1_1,status=variable
new load.3001308937M1 bus1=RML201130723.1.0,Phases=1,kv=0.12,kW=0.23566,pf=0.92,Vminpu=0.92,Vmaxpu=1.5,model=1,daily=RES1_2,status=variable
new load.3001308940M1 bus1=RML201130632.1.0,Phases=1,kv=0.12,kW=0.36602,pf=0.92,Vminpu=0.92,Vmaxpu=1.5,model=1,daily=RES1_21,status=variable
new load.3001308912M1 bus1=RML201131766.1.0,Phases=1,kv=0.12,kW=1.31248,pf=0.92,Vminpu=0.92,Vmaxpu=1.5,model=1,daily=RES2_10,status=variable
new load.3001308913M1 bus1=RML201131759.2.0,Phases=1,kv=0.12,kW=0.50784,pf=0.92,Vminpu=0.92,Vmaxpu=1.5,model=1,daily=RES1_23,status=variable
new load.3001308914M1 bus1=RML201131773.2.0,Phases=1,kv=0.12,kW=0.39748,pf=0.92,Vminpu=0.92,Vmaxpu=1.5,model=1,daily=RES2_28,status=variable
new load.3001308766M1 bus1=RML201131717.2.0,Phases=1,kv=0.12,kW=1.0957,pf=0.92,Vminpu=0.92,Vmaxpu=1.5,model=1,daily=RES2_4,status=variable
new load.3001308790M1 bus1=RML201131668.2.0,Phases=1,kv=0.12,kW=0.33664,pf=0.92,Vminpu=0.92,Vmaxpu=1.5,model=1,daily=RES2_27,status=variable
new load.3001308792M1 bus1=RML201131871.1.0,Phases=1,kv=0.12,kW=0.40368,pf=0.92,Vminpu=0.92,Vmaxpu=1.5,model=1,daily=RES2_4,status=variable
new load.3001308857M1 bus1=RML201131675.1.0,Phases=1,kv=0.12,kW=0.10194,pf=0.92,Vminpu=0.92,Vmaxpu=1.5,model=1,daily=RES1_18,status=variable
new load.3001308858M1 bus1=RML201131661.2.0,Phases=1,kv=0.12,kW=0.47556,pf=0.92,Vminpu=0.92,Vmaxpu=1.5,model=1,daily=COM1_14,status=variable
new load.3001308859M1 bus1=RML201131654.2.0,Phases=1,kv=0.12,kW=0.5513,pf=0.92,Vminpu=0.92,Vmaxpu=1.5,model=1,daily=RES1_21,status=variable
new load.3001308860M1 bus1=RML201131647.2.0,Phases=1,kv=0.12,kW=0.20068,pf=0.92,Vminpu=0.92,Vmaxpu=1.5,model=1,daily=RES2_26,status=variable
new load.3001308905M1 bus1=RML201131794.2.0,Phases=1,kv=0.12,kW=0.35908,pf=0.92,Vminpu=0.92,Vmaxpu=1.5,model=1,daily=RES1_20,status=variable
new load.3001308906M1 bus1=RML201131787.1.0,Phases=1,kv=0.12,kW=0.642,pf=0.92,Vminpu=0.92,Vmaxpu=1.5,model=1,daily=RES2_20,status=variable
new load.3001308907M1 bus1=RML203158336.2.0,Phases=1,kv=0.12,kW=1.03836,pf=0.92,Vminpu=0.92,Vmaxpu=1.5,model=1,daily=RES2_6,status=variable
new load.3001308909M1 bus1=RML201131885.2.0,Phases=1,kv=0.12,kW=0.91456,pf=0.92,Vminpu=0.92,Vmaxpu=1.5,model=1,daily=RES1_1,status=variable
new load.3001308767M1 bus1=RML201132053.2.0,Phases=1,kv=0.12,kW=1.3256,pf=0.92,Vminpu=0.92,Vmaxpu=1.5,model=1,daily=RES1_24,status=variable
new load.3001308768M1 bus1=RML201132060.1.0,Phases=1,kv=0.12,kW=0.97076,pf=0.92,Vminpu=0.92,Vmaxpu=1.5,model=1,daily=RES2_4,status=variable
new load.3001308765M1 bus1=RML201132039.1.0,Phases=1,kv=0.12,kW=0.8152,pf=0.92,Vminpu=0.92,Vmaxpu=1.5,model=1,daily=RES1_8,status=variable
new load.3001308936M1 bus1=RML201132074.2.0,Phases=1,kv=0.12,kW=0.10344,pf=0.92,Vminpu=0.92,Vmaxpu=1.5,model=1,daily=RES2_18,status=variable
new load.3001308954M1 bus1=RML203328961.1.2.0,Phases=2,kv=0.22,kW=0.18262,pf=0.92,Vminpu=0.92,Vmaxpu=1.5,model=1,daily=RES2_4,status=variable
new load.3001308955M1 bus1=RML201140082.1.0,Phases=1,kv=0.127,kW=0.74912,pf=0.92,Vminpu=0.92,Vmaxpu=1.5,model=1,daily=RES1_12,status=variable
new load.3001308956M1 bus1=RML201140089.2.0,Phases=1,kv=0.127,kW=1.39434,pf=0.92,Vminpu=0.92,Vmaxpu=1.5,model=1,daily=RES1_2,status=variable
new load.3001308957M1 bus1=RML201140110.1.0,Phases=1,kv=0.127,kW=2.11238,pf=0.92,Vminpu=0.92,Vmaxpu=1.5,model=1,daily=RES1_5,status=variable
new load.3001308958M1 bus1=RML201140117.2.0,Phases=1,kv=0.127,kW=0.88824,pf=0.92,Vminpu=0.92,Vmaxpu=1.5,model=1,daily=RES2_6,status=variable
new load.3001308959M1 bus1=RML201140187.1.0,Phases=1,kv=0.127,kW=0.69028,pf=0.92,Vminpu=0.92,Vmaxpu=1.5,model=1,daily=RES2_19,status=variable
new load.3001308960M1 bus1=RML201140264.1.2.0,Phases=2,kv=0.22,kW=0.49968,pf=0.92,Vminpu=0.92,Vmaxpu=1.5,model=1,daily=RES2_10,status=variable
new load.3001308962M1 bus1=RML201140145.3.0,Phases=1,kv=0.127,kW=0.30086,pf=0.92,Vminpu=0.92,Vmaxpu=1.5,model=1,daily=RES1_10,status=variable
new load.3001308963M1 bus1=RML201140054.2.0,Phases=1,kv=0.127,kW=0.49376,pf=0.92,Vminpu=0.92,Vmaxpu=1.5,model=1,daily=RES2_1,status=variable
new load.3001308964M1 bus1=RML201140061.2.0,Phases=1,kv=0.127,kW=0.33986,pf=0.92,Vminpu=0.92,Vmaxpu=1.5,model=1,daily=RES1_10,status=variable
new load.3001308976M1 bus1=RML201140243.2.0,Phases=1,kv=0.127,kW=1.38588,pf=0.92,Vminpu=0.92,Vmaxpu=1.5,model=1,daily=RES1_11,status=variable
new load.3001308978M1 bus1=RML201140194.2.3.0,Phases=2,kv=0.22,kW=1.5515,pf=0.92,Vminpu=0.92,Vmaxpu=1.5,model=1,daily=RES1_8,status=variable
new load.3001308979M1 bus1=RML201140180.1.2.0,Phases=2,kv=0.22,kW=1.78162,pf=0.92,Vminpu=0.92,Vmaxpu=1.5,model=1,daily=RES4_12,status=variable
new load.3001308980M1 bus1=RML201140096.2.0,Phases=1,kv=0.127,kW=0.09494,pf=0.92,Vminpu=0.92,Vmaxpu=1.5,model=1,daily=RES1_6,status=variable
new load.3001308981M1 bus1=RML201140033.2.0,Phases=1,kv=0.127,kW=0.6088,pf=0.92,Vminpu=0.92,Vmaxpu=1.5,model=1,daily=RES1_2,status=variable
new load.3001308982M1 bus1=RML201140019.2.0,Phases=1,kv=0.127,kW=0.63008,pf=0.92,Vminpu=0.92,Vmaxpu=1.5,model=1,daily=RES2_18,status=variable
new load.3001308983M1 bus1=RML201140012.3.0,Phases=1,kv=0.127,kW=0.16068,pf=0.92,Vminpu=0.92,Vmaxpu=1.5,model=1,daily=RES1_11,status=variable
new load.3001308984M1 bus1=RML201140026.1.0,Phases=1,kv=0.127,kW=0.51028,pf=0.92,Vminpu=0.92,Vmaxpu=1.5,model=1,daily=RES2_17,status=variable
new load.3001308987M1 bus1=RML201140236.3.0,Phases=1,kv=0.127,kW=0.75182,pf=0.92,Vminpu=0.92,Vmaxpu=1.5,model=1,daily=RES2_20,status=variable
new load.3001308988M1 bus1=RML201140320.3.0,Phases=1,kv=0.127,kW=0.07796,pf=0.92,Vminpu=0.92,Vmaxpu=1.5,model=1,daily=RES1_18,status=variable
new load.3001308989M1 bus1=RML201140327.3.0,Phases=1,kv=0.127,kW=0.29282,pf=0.92,Vminpu=0.92,Vmaxpu=1.5,model=1,daily=RES1_17,status=variable
new load.3001308990M1 bus1=RML201140278.2.0,Phases=1,kv=0.127,kW=0.54312,pf=0.92,Vminpu=0.92,Vmaxpu=1.5,model=1,daily=RES2_5,status=variable
new load.3001308991M1 bus1=RML201140257.3.0,Phases=1,kv=0.127,kW=0.13928,pf=0.92,Vminpu=0.92,Vmaxpu=1.5,model=1,daily=RES1_10,status=variable
new load.3001308992M1 bus1=RML201139963.1.0,Phases=1,kv=0.127,kW=0.37514,pf=0.92,Vminpu=0.92,Vmaxpu=1.5,model=1,daily=RES1_25,status=variable
new load.3001308993M1 bus1=RML201139956.2.0,Phases=1,kv=0.127,kW=1.63754,pf=0.92,Vminpu=0.92,Vmaxpu=1.5,model=1,daily=RES2_11,status=variable
new load.3001308994M1 bus1=RML201139914.1.0,Phases=1,kv=0.127,kW=0.9227,pf=0.92,Vminpu=0.92,Vmaxpu=1.5,model=1,daily=RES2_4,status=variable
new load.3001308723M1 bus1=RML201139949.1.0,Phases=1,kv=0.127,kW=0.63832,pf=0.92,Vminpu=0.92,Vmaxpu=1.5,model=1,daily=RES2_7,status=variable
new load.3001308725M1 bus1=RML201139977.2.0,Phases=1,kv=0.127,kW=1.08076,pf=0.92,Vminpu=0.92,Vmaxpu=1.5,model=1,daily=RES2_2,status=variable
new load.3001308727M1 bus1=RML201140047.1.0,Phases=1,kv=0.127,kW=0.43362,pf=0.92,Vminpu=0.92,Vmaxpu=1.5,model=1,daily=RES2_22,status=variable
new load.3001308728M1 bus1=RML201140040.1.0,Phases=1,kv=0.127,kW=0.10794,pf=0.92,Vminpu=0.92,Vmaxpu=1.5,model=1,daily=RES1_14,status=variable
new load.3001308730M1 bus1=RML201140222.3.0,Phases=1,kv=0.127,kW=0.604,pf=0.92,Vminpu=0.92,Vmaxpu=1.5,model=1,daily=RES2_19,status=variable
new load.3001308732M1 bus1=RML201140166.2.0,Phases=1,kv=0.127,kW=0.6719,pf=0.92,Vminpu=0.92,Vmaxpu=1.5,model=1,daily=RES2_5,status=variable
new load.3001308733M1 bus1=RML201140173.3.0,Phases=1,kv=0.127,kW=1.293,pf=0.92,Vminpu=0.92,Vmaxpu=1.5,model=1,daily=RES1_1,status=variable
new load.3001308740M1 bus1=RML201140208.2.0,Phases=1,kv=0.127,kW=1.05768,pf=0.92,Vminpu=0.92,Vmaxpu=1.5,model=1,daily=RES1_3,status=variable
new load.3001308807M1 bus1=RML201140306.2.0,Phases=1,kv=0.127,kW=0.89386,pf=0.92,Vminpu=0.92,Vmaxpu=1.5,model=1,daily=RES2_4,status=variable
new load.3001308812M1 bus1=RML201140271.2.0,Phases=1,kv=0.127,kW=0.71234,pf=0.92,Vminpu=0.92,Vmaxpu=1.5,model=1,daily=RES1_14,status=variable
new load.3001308813M1 bus1=RML201140285.3.0,Phases=1,kv=0.127,kW=0.5727,pf=0.92,Vminpu=0.92,Vmaxpu=1.5,model=1,daily=RES1_7,status=variable
new load.3001308815M1 bus1=RML201140313.2.0,Phases=1,kv=0.127,kW=0.76598,pf=0.92,Vminpu=0.92,Vmaxpu=1.5,model=1,daily=RES2_7,status=variable
new load.3001308884M1 bus1=RML201140348.3.0,Phases=1,kv=0.127,kW=0.01964,pf=0.92,Vminpu=0.92,Vmaxpu=1.5,model=1,daily=RES1_2,status=variable
new load.3001308809M1 bus1=RML201140299.2.0,Phases=1,kv=0.127,kW=0.39366,pf=0.92,Vminpu=0.92,Vmaxpu=1.5,model=1,daily=RES2_2,status=variable