new load.3000408624M1 bus1=RML1051128994.1.0,Phases=1,kv=0.12,kW=0.68182,pf=0.92,Vminpu=0.92,Vmaxpu=1.5,model=1,daily=RES2_6,status=variable
new load.3000408625M1 bus1=RML1051129015.2.0,Phases=1,kv=0.12,kW=0.99458,pf=0.92,Vminpu=0.92,Vmaxpu=1.5,model=1,daily=RES2_6,status=variable
new load.3000408626M1 bus1=RML1051128987.2.0,Phases=1,kv=0.12,kW=1.57968,pf=0.92,Vminpu=0.92,Vmaxpu=1.5,model=1,daily=RES1_5,status=variable
new load.3000408627M1 bus1=RML1051128938.2.0,Phases=1,kv=0.12,kW=0.48166,pf=0.92,Vminpu=0.92,Vmaxpu=1.5,model=1,daily=RES2_6,status=variable
new load.3000408628M1 bus1=RML1051128931.1.0,Phases=1,kv=0.12,kW=1.43274,pf=0.92,Vminpu=0.92,Vmaxpu=1.5,model=1,daily=RES1_5,status=variable
new load.3000408631M1 bus1=RML1051128952.2.0,Phases=1,kv=0.12,kW=1.047,pf=0.92,Vminpu=0.92,Vmaxpu=1.5,model=1,daily=RES1_5,status=variable
new load.3000408634M1 bus1=RML1051128980.2.0,Phases=1,kv=0.12,kW=0.97352,pf=0.92,Vminpu=0.92,Vmaxpu=1.5,model=1,daily=RES1_5,status=variable
new load.3000408635M1 bus1=RML1051129029.2.0,Phases=1,kv=0.12,kW=1.02864,pf=0.92,Vminpu=0.92,Vmaxpu=1.5,model=1,daily=RES1_5,status=variable
new load.3000408671M1 bus1=RML1060034428.2.0,Phases=1,kv=0.12,kW=0.53794,pf=0.92,Vminpu=0.92,Vmaxpu=1.5,model=1,daily=RES2_6,status=variable
new load.3000408664M1 bus1=RML1051129085.2.0,Phases=1,kv=0.12,kW=0.78816,pf=0.92,Vminpu=0.92,Vmaxpu=1.5,model=1,daily=RES2_6,status=variable
new load.3000408665M1 bus1=RML1060329273.1.0,Phases=1,kv=0.12,kW=1.30416,pf=0.92,Vminpu=0.92,Vmaxpu=1.5,model=1,daily=RES1_5,status=variable
new load.3000408666M1 bus1=RML1051129099.2.0,Phases=1,kv=0.12,kW=0.45038,pf=0.92,Vminpu=0.92,Vmaxpu=1.5,model=1,daily=RES2_6,status=variable
new load.3000408668M1 bus1=RML1053151084.2.0,Phases=1,kv=0.12,kW=0.71934,pf=0.92,Vminpu=0.92,Vmaxpu=1.5,model=1,daily=RES2_6,status=variable
new load.3001308644M1 bus1=RML1051156595.3.0,Phases=1,kv=0.127,kW=0.58916,pf=0.92,Vminpu=0.92,Vmaxpu=1.5,model=1,daily=RES1_2,status=variable
new load.3001308645M1 bus1=RML1051156588.2.3.0,Phases=2,kv=0.22,kW=1.59582,pf=0.92,Vminpu=0.92,Vmaxpu=1.5,model=1,daily=RES3_4,status=variable
new load.3001308646M1 bus1=RML1051156574.2.0,Phases=1,kv=0.127,kW=1.0861,pf=0.92,Vminpu=0.92,Vmaxpu=1.5,model=1,daily=RES2_4,status=variable
new load.3001308647M1 bus1=RML1051156567.1.0,Phases=1,kv=0.127,kW=0.56708,pf=0.92,Vminpu=0.92,Vmaxpu=1.5,model=1,daily=RES2_4,status=variable
new load.3001308648M1 bus1=RML1051156553.1.2.0,Phases=2,kv=0.22,kW=1.30716,pf=0.92,Vminpu=0.92,Vmaxpu=1.5,model=1,daily=RES2_4,status=variable
new load.3001308688M1 bus1=RML1051156812.1.0,Phases=1,kv=0.127,kW=0.6728,pf=0.92,Vminpu=0.92,Vmaxpu=1.5,model=1,daily=RES2_4,status=variable
new load.3001308689M1 bus1=RML1051156777.3.0,Phases=1,kv=0.127,kW=1.02842,pf=0.92,Vminpu=0.92,Vmaxpu=1.5,model=1,daily=RES2_4,status=variable
new load.3001308690M1 bus1=RML1051156784.1.0,Phases=1,kv=0.127,kW=0.73048,pf=0.92,Vminpu=0.92,Vmaxpu=1.5,model=1,daily=RES2_4,status=variable
new load.3001308691M1 bus1=RML1060936411.1.2.0,Phases=2,kv=0.22,kW=1.53784,pf=0.92,Vminpu=0.92,Vmaxpu=1.5,model=1,daily=RES2_4,status=variable
new load.3001308692M1 bus1=RML1051156805.3.0,Phases=1,kv=0.127,kW=0.80736,pf=0.92,Vminpu=0.92,Vmaxpu=1.5,model=1,daily=RES2_4,status=variable
new load.3001308693M1 bus1=RML1051156819.2.0,Phases=1,kv=0.127,kW=1.10532,pf=0.92,Vminpu=0.92,Vmaxpu=1.5,model=1,daily=RES2_4,status=variable
new load.3001308694M1 bus1=RML1060107696.1.0,Phases=1,kv=0.127,kW=1.44296,pf=0.92,Vminpu=0.92,Vmaxpu=1.5,model=1,daily=RES3_4,status=variable
new load.3001308695M1 bus1=RML1051156560.3.0,Phases=1,kv=0.127,kW=0.39278,pf=0.92,Vminpu=0.92,Vmaxpu=1.5,model=1,daily=RES1_2,status=variable
new load.3001308696M1 bus1=RML1051156581.1.3.0,Phases=2,kv=0.22,kW=1.46094,pf=0.92,Vminpu=0.92,Vmaxpu=1.5,model=1,daily=RES2_4,status=variable
new load.3001308665M1 bus1=RML1051156749.2.0,Phases=1,kv=0.127,kW=1.0092,pf=0.92,Vminpu=0.92,Vmaxpu=1.5,model=1,daily=RES2_4,status=variable
new load.3001308935M1 bus1=RML1051156868.2.0,Phases=1,kv=0.127,kW=0.6088,pf=0.92,Vminpu=0.92,Vmaxpu=1.5,model=1,daily=RES1_2,status=variable
new load.3001309102M1 bus1=RML1051101701.2.0,Phases=1,kv=0.127,kW=1.57746,pf=0.92,Vminpu=0.92,Vmaxpu=1.5,model=1,daily=RES3_4,status=variable
new load.3001309104M1 bus1=RML1051101827.2.0,Phases=1,kv=0.127,kW=0.67754,pf=0.92,Vminpu=0.92,Vmaxpu=1.5,model=1,daily=RES1_2,status=variable
new load.3001309105M1 bus1=RML1051101820.1.0,Phases=1,kv=0.127,kW=1.2495,pf=0.92,Vminpu=0.92,Vmaxpu=1.5,model=1,daily=RES2_4,status=variable
new load.3001309106M1 bus1=RML1051101813.2.0,Phases=1,kv=0.127,kW=1.39366,pf=0.92,Vminpu=0.92,Vmaxpu=1.5,model=1,daily=RES2_4,status=variable
new load.3001309107M1 bus1=RML1051101862.1.0,Phases=1,kv=0.127,kW=2.5845,pf=0.92,Vminpu=0.92,Vmaxpu=1.5,model=1,daily=RES5_5,status=variable
new load.3001309108M1 bus1=RML1051101855.1.0,Phases=1,kv=0.127,kW=0.39408,pf=0.92,Vminpu=0.92,Vmaxpu=1.5,model=1,daily=RES2_4,status=variable
new load.3001309110M1 bus1=RML1051101841.2.0,Phases=1,kv=0.127,kW=1.11494,pf=0.92,Vminpu=0.92,Vmaxpu=1.5,model=1,daily=RES2_4,status=variable
new load.3001309111M1 bus1=RML1051101834.1.2.0,Phases=2,kv=0.22,kW=1.4185,pf=0.92,Vminpu=0.92,Vmaxpu=1.5,model=1,daily=RES3_4,status=variable
new load.3001309124M1 bus1=RML1051101932.1.0,Phases=1,kv=0.127,kW=1.0957,pf=0.92,Vminpu=0.92,Vmaxpu=1.5,model=1,daily=RES2_4,status=variable
new load.3001309125M1 bus1=RML1051101939.2.0,Phases=1,kv=0.127,kW=1.26872,pf=0.92,Vminpu=0.92,Vmaxpu=1.5,model=1,daily=RES2_4,status=variable
new load.3001309126M1 bus1=RML1051101904.2.0,Phases=1,kv=0.127,kW=0.8458,pf=0.92,Vminpu=0.92,Vmaxpu=1.5,model=1,daily=RES2_4,status=variable
new load.3001309128M1 bus1=RML1051101897.1.0,Phases=1,kv=0.127,kW=0.57474,pf=0.92,Vminpu=0.92,Vmaxpu=1.5,model=1,daily=RES3_4,status=variable
new load.3001309129M1 bus1=RML1051101890.1.0,Phases=1,kv=0.127,kW=0.37314,pf=0.92,Vminpu=0.92,Vmaxpu=1.5,model=1,daily=RES1_2,status=variable
new load.3001309130M1 bus1=RML1051101869.1.0,Phases=1,kv=0.127,kW=0.37314,pf=0.92,Vminpu=0.92,Vmaxpu=1.5,model=1,daily=RES1_2,status=variable
new load.3001309131M1 bus1=RML1051101876.2.0,Phases=1,kv=0.127,kW=0.57934,pf=0.92,Vminpu=0.92,Vmaxpu=1.5,model=1,daily=RES1_2,status=variable
new load.3001309133M1 bus1=RML1051101806.1.0,Phases=1,kv=0.127,kW=1.19838,pf=0.92,Vminpu=0.92,Vmaxpu=1.5,model=1,daily=RES3_4,status=variable
new load.3001308564M1 bus1=RML1051141678.1.2.3.0,Phases=3,kv=0.22,kW=0.39736,pf=0.92,Vminpu=0.92,Vmaxpu=1.5,model=1,daily=COM1_5,status=variable
new load.3001308547M1 bus1=RML1051141496.1.2.0,Phases=2,kv=0.22,kW=0.5333,pf=0.92,Vminpu=0.92,Vmaxpu=1.5,model=1,daily=COM1_5,status=variable
new load.3001308548M1 bus1=RML1051141503.2.0,Phases=1,kv=0.127,kW=0.7765,pf=0.92,Vminpu=0.92,Vmaxpu=1.5,model=1,daily=RES3_4,status=variable
new load.3001308549M1 bus1=RML1051141475.1.0,Phases=1,kv=0.127,kW=1.78774,pf=0.92,Vminpu=0.92,Vmaxpu=1.5,model=1,daily=RES2_4,status=variable
new load.3001308550M1 bus1=RML1053144469.1.2.3.0,Phases=3,kv=0.22,kW=0.46272,pf=0.92,Vminpu=0.92,Vmaxpu=1.5,model=1,daily=COM1_5,status=variable
new load.3001309221M1 bus1=RML1050937495.1.2.3.0,Phases=3,kv=0.22,kW=0.03928,pf=0.92,Vminpu=0.92,Vmaxpu=1.5,model=1,daily=RES1_2,status=variable
new load.3001309222M1 bus1=RML1050937488.3.0,Phases=1,kv=0.127,kW=0.9996,pf=0.92,Vminpu=0.92,Vmaxpu=1.5,model=1,daily=RES2_4,status=variable
new load.3001309223M1 bus1=RML1050937481.2.0,Phases=1,kv=0.127,kW=1.05726,pf=0.92,Vminpu=0.92,Vmaxpu=1.5,model=1,daily=RES2_4,status=variable
new load.3001309213M1 bus1=RML1050937530.1.3.0,Phases=2,kv=0.22,kW=1.51022,pf=0.92,Vminpu=0.92,Vmaxpu=1.5,model=1,daily=RES3_4,status=variable
new load.3001309179M1 bus1=RML1051100567.1.2.0,Phases=2,kv=0.22,kW=3.86582,pf=0.92,Vminpu=0.92,Vmaxpu=1.5,model=1,daily=RES5_5,status=variable
new load.3001309183M1 bus1=RML1051100539.1.2.0,Phases=2,kv=0.22,kW=0.02946,pf=0.92,Vminpu=0.92,Vmaxpu=1.5,model=1,daily=RES1_2,status=variable
new load.3001309184M1 bus1=RML1051100483.3.0,Phases=1,kv=0.127,kW=1.12454,pf=0.92,Vminpu=0.92,Vmaxpu=1.5,model=1,daily=RES2_4,status=variable
new load.3001309185M1 bus1=RML1051100490.3.0,Phases=1,kv=0.127,kW=2.02476,pf=0.92,Vminpu=0.92,Vmaxpu=1.5,model=1,daily=RES4_5,status=variable
new load.3001309080M1 bus1=RML1051100546.3.0,Phases=1,kv=0.127,kW=1.11494,pf=0.92,Vminpu=0.92,Vmaxpu=1.5,model=1,daily=RES2_4,status=variable
new load.3001309082M1 bus1=RML1051100532.2.3.0,Phases=2,kv=0.22,kW=1.30766,pf=0.92,Vminpu=0.92,Vmaxpu=1.5,model=1,daily=RES4_5,status=variable
new load.3001309083M1 bus1=RML1051100525.2.3.0,Phases=2,kv=0.22,kW=0.54988,pf=0.92,Vminpu=0.92,Vmaxpu=1.5,model=1,daily=RES1_2,status=variable
new load.3001309084M1 bus1=RML1051100504.1.2.3.0,Phases=3,kv=0.22,kW=1.23026,pf=0.92,Vminpu=0.92,Vmaxpu=1.5,model=1,daily=RES2_4,status=variable
new load.3001309085M1 bus1=RML1051100504.1.2.3.0,Phases=3,kv=0.22,kW=0.17516,pf=0.92,Vminpu=0.92,Vmaxpu=1.5,model=1,daily=COM1_5,status=variable
new load.3001309086M1 bus1=RML1051100511.1.2.0,Phases=2,kv=0.22,kW=1.26564,pf=0.92,Vminpu=0.92,Vmaxpu=1.5,model=1,daily=RES3_4,status=variable
new load.3001309087M1 bus1=RML1051100462.2.3.0,Phases=2,kv=0.22,kW=1.6888,pf=0.92,Vminpu=0.92,Vmaxpu=1.5,model=1,daily=COM3_3,status=variable
new load.3001309088M1 bus1=RML1051100441.3.0,Phases=1,kv=0.127,kW=1.19228,pf=0.92,Vminpu=0.92,Vmaxpu=1.5,model=1,daily=RES3_4,status=variable
new load.3001309089M1 bus1=RML1051100448.3.0,Phases=1,kv=0.127,kW=0.7168,pf=0.92,Vminpu=0.92,Vmaxpu=1.5,model=1,daily=RES1_2,status=variable
new load.3001309090M1 bus1=RML1051100455.1.3.0,Phases=2,kv=0.22,kW=3.16368,pf=0.92,Vminpu=0.92,Vmaxpu=1.5,model=1,daily=RES4_5,status=variable
new load.3001309092M1 bus1=RML1051100427.1.2.3.0,Phases=3,kv=0.22,kW=1.49188,pf=0.92,Vminpu=0.92,Vmaxpu=1.5,model=1,daily=RES3_4,status=variable
new load.3001309094M1 bus1=RML1051100406.1.2.3.0,Phases=3,kv=0.22,kW=0.57934,pf=0.92,Vminpu=0.92,Vmaxpu=1.5,model=1,daily=RES1_2,status=variable
new load.3001309095M1 bus1=RML1051100413.2.0,Phases=1,kv=0.127,kW=0.9416,pf=0.92,Vminpu=0.92,Vmaxpu=1.5,model=1,daily=RES3_4,status=variable
new load.3001309097M1 bus1=RML1053158357.1.2.3.0,Phases=3,kv=0.22,kW=1.13114,pf=0.92,Vminpu=0.92,Vmaxpu=1.5,model=1,daily=RES3_4,status=variable
new load.3001309098M1 bus1=RML1051100385.1.0,Phases=1,kv=0.127,kW=1.02842,pf=0.92,Vminpu=0.92,Vmaxpu=1.5,model=1,daily=RES2_4,status=variable
new load.3001309189M1 bus1=RML1051104256.1.2.3.0,Phases=3,kv=0.22,kW=3.59486,pf=0.92,Vminpu=0.92,Vmaxpu=1.5,model=1,daily=RES6_6,status=variable
new load.3001309191M1 bus1=RML1051104312.1.2.3.0,Phases=3,kv=0.22,kW=20.192,pf=0.92,Vminpu=0.92,Vmaxpu=1.5,model=1,daily=IND4_2,status=variable
new load.3001309074M1 bus1=RML1051104221.1.0,Phases=1,kv=0.127,kW=1.1189,pf=0.92,Vminpu=0.92,Vmaxpu=1.5,model=1,daily=RES3_4,status=variable
new load.3001309075M1 bus1=RML1051104214.1.2.0,Phases=2,kv=0.22,kW=0.75608,pf=0.92,Vminpu=0.92,Vmaxpu=1.5,model=1,daily=RES1_2,status=variable
new load.3001309076M1 bus1=RML1051104228.1.2.0,Phases=2,kv=0.22,kW=0.43396,pf=0.92,Vminpu=0.92,Vmaxpu=1.5,model=1,daily=COM1_5,status=variable
new load.3001309193M1 bus1=RML1051104305.1.2.0,Phases=2,kv=0.22,kW=1.78386,pf=0.92,Vminpu=0.92,Vmaxpu=1.5,model=1,daily=COM3_3,status=variable
new load.3001309247M1 bus1=RML1051104361.1.2.3.0,Phases=3,kv=0.22,kW=4.28808,pf=0.92,Vminpu=0.92,Vmaxpu=1.5,model=1,daily=RES5_5,status=variable
new load.3001309181M1 bus1=RML1051105089.1.0,Phases=1,kv=0.127,kW=1.66074,pf=0.92,Vminpu=0.92,Vmaxpu=1.5,model=1,daily=RES6_6,status=variable
new load.3001309236M1 bus1=RML1051105271.1.2.3.0,Phases=3,kv=0.22,kW=0.35554,pf=0.92,Vminpu=0.92,Vmaxpu=1.5,model=1,daily=COM1_5,status=variable
new load.3001309237M1 bus1=RML1051105257.1.2.3.0,Phases=3,kv=0.22,kW=0.06274,pf=0.92,Vminpu=0.92,Vmaxpu=1.5,model=1,daily=COM1_5,status=variable
new load.3001309238M1 bus1=RML1051105257.1.2.3.0,Phases=3,kv=0.22,kW=1.10532,pf=0.92,Vminpu=0.92,Vmaxpu=1.5,model=1,daily=RES2_4,status=variable
new load.3001309240M1 bus1=RML1051105250.1.2.3.0,Phases=3,kv=0.22,kW=0.72936,pf=0.92,Vminpu=0.92,Vmaxpu=1.5,model=1,daily=COM1_5,status=variable
new load.3001309243M1 bus1=RML1051105096.1.2.0,Phases=2,kv=0.22,kW=1.86484,pf=0.92,Vminpu=0.92,Vmaxpu=1.5,model=1,daily=RES3_4,status=variable
new load.3001309194M1 bus1=RML1051105180.2.0,Phases=1,kv=0.127,kW=1.20144,pf=0.92,Vminpu=0.92,Vmaxpu=1.5,model=1,daily=RES2_4,status=variable
new load.3001309198M1 bus1=RML1051105152.3.0,Phases=1,kv=0.127,kW=0.92936,pf=0.92,Vminpu=0.92,Vmaxpu=1.5,model=1,daily=RES3_4,status=variable
new load.3001309201M1 bus1=RML1051105131.2.0,Phases=1,kv=0.127,kW=1.01882,pf=0.92,Vminpu=0.92,Vmaxpu=1.5,model=1,daily=RES2_4,status=variable
new load.3001309203M1 bus1=RML1054974948.1.2.0,Phases=2,kv=0.22,kW=0.34368,pf=0.92,Vminpu=0.92,Vmaxpu=1.5,model=1,daily=RES1_2,status=variable
new load.3001309204M1 bus1=RML1051105075.1.2.0,Phases=2,kv=0.22,kW=2.78404,pf=0.92,Vminpu=0.92,Vmaxpu=1.5,model=1,daily=RES4_5,status=variable
new load.3001309205M1 bus1=RML1051105117.1.2.3.0,Phases=3,kv=0.22,kW=1.68752,pf=0.92,Vminpu=0.92,Vmaxpu=1.5,model=1,daily=RES3_4,status=variable
new load.3001309206M1 bus1=RML1051105117.1.2.3.0,Phases=3,kv=0.22,kW=2.12318,pf=0.92,Vminpu=0.92,Vmaxpu=1.5,model=1,daily=RES4_5,status=variable
new load.3001309208M1 bus1=RML1051105159.2.3.0,Phases=2,kv=0.22,kW=0.90324,pf=0.92,Vminpu=0.92,Vmaxpu=1.5,model=1,daily=COM2_2,status=variable
new load.3001309192M1 bus1=RML1051105103.1.2.3.0,Phases=3,kv=0.22,kW=0.22166,pf=0.92,Vminpu=0.92,Vmaxpu=1.5,model=1,daily=COM2_2,status=variable
new load.3001309040M1 bus1=RML1051106748.1.2.3.0,Phases=3,kv=0.22,kW=0.50716,pf=0.92,Vminpu=0.92,Vmaxpu=1.5,model=1,daily=COM1_5,status=variable
new load.3001309042M1 bus1=RML1051106699.3.0,Phases=1,kv=0.127,kW=0.3044,pf=0.92,Vminpu=0.92,Vmaxpu=1.5,model=1,daily=RES1_2,status=variable
new load.3001309043M1 bus1=RML1051106706.2.0,Phases=1,kv=0.127,kW=1.06688,pf=0.92,Vminpu=0.92,Vmaxpu=1.5,model=1,daily=RES2_4,status=variable
new load.3001309044M1 bus1=RML1051106671.2.3.0,Phases=2,kv=0.22,kW=1.6161,pf=0.92,Vminpu=0.92,Vmaxpu=1.5,model=1,daily=COM3_3,status=variable
new load.3001309055M1 bus1=RML1051108855.1.2.0,Phases=2,kv=0.22,kW=0.95154,pf=0.92,Vminpu=0.92,Vmaxpu=1.5,model=1,daily=RES2_4,status=variable
new load.3001309057M1 bus1=RML1053344473.1.2.0,Phases=2,kv=0.22,kW=0.70584,pf=0.92,Vminpu=0.92,Vmaxpu=1.5,model=1,daily=COM1_5,status=variable
new load.3001309058M1 bus1=RML1053344473.1.2.0,Phases=2,kv=0.22,kW=0.7497,pf=0.92,Vminpu=0.92,Vmaxpu=1.5,model=1,daily=RES2_4,status=variable
new load.3001309060M1 bus1=RML1051108911.1.2.0,Phases=2,kv=0.22,kW=2.313,pf=0.92,Vminpu=0.92,Vmaxpu=1.5,model=1,daily=RES4_5,status=variable
new load.3001309061M1 bus1=RML1051108904.3.0,Phases=1,kv=0.127,kW=1.39366,pf=0.92,Vminpu=0.92,Vmaxpu=1.5,model=1,daily=RES2_4,status=variable
new load.3001309062M1 bus1=RML1051108967.2.0,Phases=1,kv=0.127,kW=0.20652,pf=0.92,Vminpu=0.92,Vmaxpu=1.5,model=1,daily=COM1_5,status=variable
new load.3001309066M1 bus1=RML1051109023.2.0,Phases=1,kv=0.127,kW=0.48114,pf=0.92,Vminpu=0.92,Vmaxpu=1.5,model=1,daily=RES1_2,status=variable
new load.3001309068M1 bus1=RML1051109016.3.0,Phases=1,kv=0.127,kW=0.28476,pf=0.92,Vminpu=0.92,Vmaxpu=1.5,model=1,daily=RES1_2,status=variable
new load.3001309069M1 bus1=RML1051108932.1.3.0,Phases=2,kv=0.22,kW=0.15686,pf=0.92,Vminpu=0.92,Vmaxpu=1.5,model=1,daily=COM1_5,status=variable
new load.3001309070M1 bus1=RML1051108932.1.3.0,Phases=2,kv=0.22,kW=0.9131,pf=0.92,Vminpu=0.92,Vmaxpu=1.5,model=1,daily=RES2_4,status=variable
new load.3001309071M1 bus1=RML1053158490.3.0,Phases=1,kv=0.127,kW=1.336,pf=0.92,Vminpu=0.92,Vmaxpu=1.5,model=1,daily=RES2_4,status=variable
new load.3001309072M1 bus1=RML1051108981.1.0,Phases=1,kv=0.127,kW=0.5106,pf=0.92,Vminpu=0.92,Vmaxpu=1.5,model=1,daily=RES1_2,status=variable
new load.3001309073M1 bus1=RML1051108974.1.2.0,Phases=2,kv=0.22,kW=2.48172,pf=0.92,Vminpu=0.92,Vmaxpu=1.5,model=1,daily=RES4_5,status=variable
new load.3001309010M1 bus1=RML1051108960.1.2.3.0,Phases=3,kv=0.22,kW=0.8988,pf=0.92,Vminpu=0.92,Vmaxpu=1.5,model=1,daily=RES3_4,status=variable
new load.3001309011M1 bus1=RML1051108953.1.2.3.0,Phases=3,kv=0.22,kW=1.38406,pf=0.92,Vminpu=0.92,Vmaxpu=1.5,model=1,daily=RES2_4,status=variable
new load.3001309012M1 bus1=RML1051108946.1.2.3.0,Phases=3,kv=0.22,kW=3.42172,pf=0.92,Vminpu=0.92,Vmaxpu=1.5,model=1,daily=RES5_5,status=variable
new load.3001309013M1 bus1=RML1051108918.1.2.3.0,Phases=3,kv=0.22,kW=0.9176,pf=0.92,Vminpu=0.92,Vmaxpu=1.5,model=1,daily=COM1_5,status=variable
new load.3001309015M1 bus1=RML1051108876.1.0,Phases=1,kv=0.127,kW=0.31632,pf=0.92,Vminpu=0.92,Vmaxpu=1.5,model=1,daily=COM1_5,status=variable
new load.3001309016M1 bus1=RML1051108883.3.0,Phases=1,kv=0.127,kW=0.4967,pf=0.92,Vminpu=0.92,Vmaxpu=1.5,model=1,daily=COM1_5,status=variable
new load.3001309017M1 bus1=RML1051108820.1.3.0,Phases=2,kv=0.22,kW=1.75218,pf=0.92,Vminpu=0.92,Vmaxpu=1.5,model=1,daily=COM3_3,status=variable
new load.3001309018M1 bus1=RML1051108743.1.0,Phases=1,kv=0.127,kW=0.94192,pf=0.92,Vminpu=0.92,Vmaxpu=1.5,model=1,daily=RES2_4,status=variable
new load.3001309019M1 bus1=RML1053158350.1.0,Phases=1,kv=0.127,kW=0.37314,pf=0.92,Vminpu=0.92,Vmaxpu=1.5,model=1,daily=RES1_2,status=variable
new load.3001309020M1 bus1=RML1051108757.1.2.0,Phases=2,kv=0.22,kW=0.74626,pf=0.92,Vminpu=0.92,Vmaxpu=1.5,model=1,daily=RES1_2,status=variable
new load.3001309024M1 bus1=RML1051108764.2.0,Phases=1,kv=0.127,kW=0.88374,pf=0.92,Vminpu=0.92,Vmaxpu=1.5,model=1,daily=RES1_2,status=variable
new load.3001309028M1 bus1=RML1051108771.3.0,Phases=1,kv=0.127,kW=1.0861,pf=0.92,Vminpu=0.92,Vmaxpu=1.5,model=1,daily=RES2_4,status=variable
new load.3001309033M1 bus1=RML1053707885.1.2.3.0,Phases=3,kv=0.22,kW=1.6962,pf=0.92,Vminpu=0.92,Vmaxpu=1.5,model=1,daily=IND3_7,status=variable
new load.3001309036M1 bus1=RML1051108834.1.2.3.0,Phases=3,kv=0.22,kW=1.06998,pf=0.92,Vminpu=0.92,Vmaxpu=1.5,model=1,daily=RES3_4,status=variable
new load.3001309134M1 bus1=RML1051115197.2.0,Phases=1,kv=0.127,kW=0.84988,pf=0.92,Vminpu=0.92,Vmaxpu=1.5,model=1,daily=RES3_4,status=variable
new load.3001309138M1 bus1=RML1051115862.1.0,Phases=1,kv=0.127,kW=0.37908,pf=0.92,Vminpu=0.92,Vmaxpu=1.5,model=1,daily=RES3_4,status=variable
new load.3001309140M1 bus1=RML1053338719.1.2.0,Phases=2,kv=0.22,kW=0.52864,pf=0.92,Vminpu=0.92,Vmaxpu=1.5,model=1,daily=RES2_4,status=variable
new load.3001309141M1 bus1=RML1053338719.1.2.0,Phases=2,kv=0.22,kW=0.17254,pf=0.92,Vminpu=0.92,Vmaxpu=1.5,model=1,daily=COM1_5,status=variable
new load.3001309142M1 bus1=RML1051115897.1.2.3.0,Phases=3,kv=0.22,kW=0.82086,pf=0.92,Vminpu=0.92,Vmaxpu=1.5,model=1,daily=COM1_5,status=variable
new load.3001309143M1 bus1=RML1051115904.2.3.0,Phases=2,kv=0.22,kW=1.4613,pf=0.92,Vminpu=0.92,Vmaxpu=1.5,model=1,daily=RES3_4,status=variable
new load.3001309150M1 bus1=RML1051134993.1.2.3.0,Phases=3,kv=0.22,kW=1.2495,pf=0.92,Vminpu=0.92,Vmaxpu=1.5,model=1,daily=RES2_4,status=variable
new load.3001309112M1 bus1=RML1051115708.1.2.3.0,Phases=3,kv=0.22,kW=2.4958,pf=0.92,Vminpu=0.92,Vmaxpu=1.5,model=1,daily=RES4_5,status=variable
new load.3001309113M1 bus1=RML1051115701.3.0,Phases=1,kv=0.127,kW=1.21104,pf=0.92,Vminpu=0.92,Vmaxpu=1.5,model=1,daily=RES2_4,status=variable
new load.3001309114M1 bus1=RML1051115694.1.2.3.0,Phases=3,kv=0.22,kW=1.54744,pf=0.92,Vminpu=0.92,Vmaxpu=1.5,model=1,daily=RES2_4,status=variable
new load.3001309115M1 bus1=RML1051115750.2.3.0,Phases=2,kv=0.22,kW=0.87392,pf=0.92,Vminpu=0.92,Vmaxpu=1.5,model=1,daily=RES1_2,status=variable
new load.3001309116M1 bus1=RML1051115743.2.0,Phases=1,kv=0.127,kW=0.59592,pf=0.92,Vminpu=0.92,Vmaxpu=1.5,model=1,daily=RES2_4,status=variable
new load.3001309117M1 bus1=RML1051115799.3.0,Phases=1,kv=0.127,kW=1.13114,pf=0.92,Vminpu=0.92,Vmaxpu=1.5,model=1,daily=RES3_4,status=variable
new load.3001309118M1 bus1=RML1051115806.1.2.3.0,Phases=3,kv=0.22,kW=2.69968,pf=0.92,Vminpu=0.92,Vmaxpu=1.5,model=1,daily=RES4_5,status=variable
new load.3001309119M1 bus1=RML1056746856.1.2.0,Phases=2,kv=0.22,kW=0.82658,pf=0.92,Vminpu=0.92,Vmaxpu=1.5,model=1,daily=RES2_4,status=variable
new load.3001309121M1 bus1=RML1051115883.1.2.0,Phases=2,kv=0.22,kW=1.36958,pf=0.92,Vminpu=0.92,Vmaxpu=1.5,model=1,daily=RES3_4,status=variable
new load.3001309122M1 bus1=RML1051115848.3.0,Phases=1,kv=0.127,kW=0.39408,pf=0.92,Vminpu=0.92,Vmaxpu=1.5,model=1,daily=RES2_4,status=variable
new load.3001309123M1 bus1=RML1051115855.1.0,Phases=1,kv=0.127,kW=0.39278,pf=0.92,Vminpu=0.92,Vmaxpu=1.5,model=1,daily=RES1_2,status=variable
new load.3001309174M1 bus1=RML1051115813.1.2.3.0,Phases=3,kv=0.22,kW=1.49798,pf=0.92,Vminpu=0.92,Vmaxpu=1.5,model=1,daily=RES3_4,status=variable
new load.3001309175M1 bus1=RML1051115757.1.2.3.0,Phases=3,kv=0.22,kW=0.72148,pf=0.92,Vminpu=0.92,Vmaxpu=1.5,model=1,daily=RES3_4,status=variable
new load.3001309176M1 bus1=RML1051115764.2.0,Phases=1,kv=0.127,kW=1.38182,pf=0.92,Vminpu=0.92,Vmaxpu=1.5,model=1,daily=RES3_4,status=variable
new load.3001309216M1 bus1=RML1051115729.1.3.0,Phases=2,kv=0.22,kW=3.6911,pf=0.92,Vminpu=0.92,Vmaxpu=1.5,model=1,daily=RES5_5,status=variable
new load.3001309217M1 bus1=RML1051115736.1.0,Phases=1,kv=0.127,kW=0.9996,pf=0.92,Vminpu=0.92,Vmaxpu=1.5,model=1,daily=RES2_4,status=variable
new load.3001309218M1 bus1=RML1060033932.1.2.0,Phases=2,kv=0.22,kW=2.85434,pf=0.92,Vminpu=0.92,Vmaxpu=1.5,model=1,daily=RES4_5,status=variable
new load.3001309219M1 bus1=RML1051115785.2.3.0,Phases=2,kv=0.22,kW=1.57746,pf=0.92,Vminpu=0.92,Vmaxpu=1.5,model=1,daily=RES3_4,status=variable
new load.3000408690M1 bus1=RML1051126145.1.2.3.0,Phases=3,kv=0.22,kW=0.00418,pf=0.92,Vminpu=0.92,Vmaxpu=1.5,model=1,daily=COM1_11,status=variable
new load.3001309160M1 bus1=RML1051126824.1.2.0,Phases=2,kv=0.24,kW=1.13724,pf=0.92,Vminpu=0.92,Vmaxpu=1.5,model=1,daily=RES3_4,status=variable
new load.3001309161M1 bus1=RML1051126817.1.2.0,Phases=2,kv=0.24,kW=0.64396,pf=0.92,Vminpu=0.92,Vmaxpu=1.5,model=1,daily=RES2_4,status=variable
new load.3001309163M1 bus1=RML1051126887.1.0,Phases=1,kv=0.12,kW=1.03942,pf=0.92,Vminpu=0.92,Vmaxpu=1.5,model=1,daily=RES3_4,status=variable
new load.3001309164M1 bus1=RML1051126831.1.2.0,Phases=2,kv=0.24,kW=1.10668,pf=0.92,Vminpu=0.92,Vmaxpu=1.5,model=1,daily=RES3_4,status=variable
new load.3001309165M1 bus1=RML1051126873.1.2.0,Phases=2,kv=0.24,kW=1.31678,pf=0.92,Vminpu=0.92,Vmaxpu=1.5,model=1,daily=RES2_4,status=variable
new load.3001309166M1 bus1=RML1051126894.1.2.0,Phases=2,kv=0.24,kW=1.37102,pf=0.92,Vminpu=0.92,Vmaxpu=1.5,model=1,daily=RES6_6,status=variable
new load.3001309171M1 bus1=RML1056334969.1.0,Phases=1,kv=0.12,kW=2.61432,pf=0.92,Vminpu=0.92,Vmaxpu=1.5,model=1,daily=RES2_4,status=variable
new load.3001309172M1 bus1=RML1051126901.1.0,Phases=1,kv=0.12,kW=2.09506,pf=0.92,Vminpu=0.92,Vmaxpu=1.5,model=1,daily=RES4_5,status=variable
new load.3001309173M1 bus1=RML1051135056.1.2.0,Phases=2,kv=0.24,kW=1.63106,pf=0.92,Vminpu=0.92,Vmaxpu=1.5,model=1,daily=RES4_5,status=variable
new load.3000408669M1 bus1=RML1051128973.2.0,Phases=1,kv=0.127,kW=0.8382,pf=0.92,Vminpu=0.92,Vmaxpu=1.5,model=1,daily=RES2_6,status=variable
new load.3000408670M1 bus1=RML1051128966.1.0,Phases=1,kv=0.127,kW=0.73186,pf=0.92,Vminpu=0.92,Vmaxpu=1.5,model=1,daily=RES2_6,status=variable
new load.3000408620M1 bus1=RML1051128525.3.0,Phases=1,kv=0.127,kW=0.26898,pf=0.92,Vminpu=0.92,Vmaxpu=1.5,model=1,daily=RES2_6,status=variable
new load.3000408622M1 bus1=RML1051128623.1.0,Phases=1,kv=0.127,kW=1.30416,pf=0.92,Vminpu=0.92,Vmaxpu=1.5,model=1,daily=RES1_5,status=variable
new load.3000408672M1 bus1=RML1051128539.1.0,Phases=1,kv=0.127,kW=0.66306,pf=0.92,Vminpu=0.92,Vmaxpu=1.5,model=1,daily=RES2_6,status=variable
new load.3000408673M1 bus1=RML1051128560.3.0,Phases=1,kv=0.127,kW=0.7534,pf=0.92,Vminpu=0.92,Vmaxpu=1.5,model=1,daily=RES3_7,status=variable
new load.3000408674M1 bus1=RML1051128567.1.0,Phases=1,kv=0.127,kW=0.5442,pf=0.92,Vminpu=0.92,Vmaxpu=1.5,model=1,daily=RES2_6,status=variable
new load.3000408675M1 bus1=RML1051128574.3.0,Phases=1,kv=0.127,kW=1.3409,pf=0.92,Vminpu=0.92,Vmaxpu=1.5,model=1,daily=RES1_5,status=variable
new load.3000408676M1 bus1=RML1051128581.3.0,Phases=1,kv=0.127,kW=0.18368,pf=0.92,Vminpu=0.92,Vmaxpu=1.5,model=1,daily=RES1_5,status=variable
new load.3000408677M1 bus1=RML1051128588.3.0,Phases=1,kv=0.127,kW=0.2377,pf=0.92,Vminpu=0.92,Vmaxpu=1.5,model=1,daily=RES2_6,status=variable
new load.3000408678M1 bus1=RML1051128595.3.0,Phases=1,kv=0.127,kW=0.76314,pf=0.92,Vminpu=0.92,Vmaxpu=1.5,model=1,daily=RES2_6,status=variable
new load.3000408680M1 bus1=RML1051128651.1.0,Phases=1,kv=0.127,kW=1.01026,pf=0.92,Vminpu=0.92,Vmaxpu=1.5,model=1,daily=RES1_5,status=variable
new load.3000408681M1 bus1=RML1051128721.2.0,Phases=1,kv=0.127,kW=0.63178,pf=0.92,Vminpu=0.92,Vmaxpu=1.5,model=1,daily=RES2_6,status=variable
new load.3000408607M1 bus1=RML1051128735.3.0,Phases=1,kv=0.127,kW=0.48166,pf=0.92,Vminpu=0.92,Vmaxpu=1.5,model=1,daily=RES2_6,status=variable
new load.3000408608M1 bus1=RML1051128742.1.0,Phases=1,kv=0.127,kW=0.19238,pf=0.92,Vminpu=0.92,Vmaxpu=1.5,model=1,daily=COM1_11,status=variable
new load.3000408610M1 bus1=RML1051128686.1.0,Phases=1,kv=0.127,kW=0.47758,pf=0.92,Vminpu=0.92,Vmaxpu=1.5,model=1,daily=RES1_5,status=variable
new load.3000408612M1 bus1=RML1051128700.3.0,Phases=1,kv=0.127,kW=0.68182,pf=0.92,Vminpu=0.92,Vmaxpu=1.5,model=1,daily=RES2_6,status=variable
new load.3000408613M1 bus1=RML1051128658.1.2.0,Phases=2,kv=0.22,kW=0.77564,pf=0.92,Vminpu=0.92,Vmaxpu=1.5,model=1,daily=RES2_6,status=variable
new load.3000408614M1 bus1=RML1051128665.1.0,Phases=1,kv=0.127,kW=0.91842,pf=0.92,Vminpu=0.92,Vmaxpu=1.5,model=1,daily=RES1_5,status=variable
new load.3000408615M1 bus1=RML1051128672.2.0,Phases=1,kv=0.127,kW=0.78984,pf=0.92,Vminpu=0.92,Vmaxpu=1.5,model=1,daily=RES1_5,status=variable
new load.3000408616M1 bus1=RML1060240226.3.0,Phases=1,kv=0.127,kW=1.35926,pf=0.92,Vminpu=0.92,Vmaxpu=1.5,model=1,daily=RES1_5,status=variable
new load.3000408617M1 bus1=RML1055826202.1.0,Phases=1,kv=0.127,kW=0.6005,pf=0.92,Vminpu=0.92,Vmaxpu=1.5,model=1,daily=RES2_6,status=variable
new load.3000408649M1 bus1=RML1060736315.2.0,Phases=1,kv=0.12,kW=0.56922,pf=0.92,Vminpu=0.92,Vmaxpu=1.5,model=1,daily=RES2_6,status=variable
new load.3000408650M1 bus1=RML1051129204.1.0,Phases=1,kv=0.12,kW=0.97352,pf=0.92,Vminpu=0.92,Vmaxpu=1.5,model=1,daily=RES1_5,status=variable
new load.3000408651M1 bus1=RML1051129225.2.0,Phases=1,kv=0.12,kW=0.58174,pf=0.92,Vminpu=0.92,Vmaxpu=1.5,model=1,daily=RES2_6,status=variable
new load.3000408652M1 bus1=RML1051129218.2.0,Phases=1,kv=0.12,kW=0.61926,pf=0.92,Vminpu=0.92,Vmaxpu=1.5,model=1,daily=RES2_6,status=variable
new load.3000408653M1 bus1=RML1051129309.2.0,Phases=1,kv=0.12,kW=1.047,pf=0.92,Vminpu=0.92,Vmaxpu=1.5,model=1,daily=RES1_5,status=variable
new load.3000408654M1 bus1=RML1051129323.2.0,Phases=1,kv=0.12,kW=0.57548,pf=0.92,Vminpu=0.92,Vmaxpu=1.5,model=1,daily=RES2_6,status=variable
new load.3000408655M1 bus1=RML1051129330.1.0,Phases=1,kv=0.12,kW=1.12048,pf=0.92,Vminpu=0.92,Vmaxpu=1.5,model=1,daily=RES1_5,status=variable
new load.3000408657M1 bus1=RML1051129239.2.0,Phases=1,kv=0.12,kW=0.73474,pf=0.92,Vminpu=0.92,Vmaxpu=1.5,model=1,daily=RES1_5,status=variable
new load.3000408658M1 bus1=RML1051129225.2.0,Phases=1,kv=0.12,kW=0.91842,pf=0.92,Vminpu=0.92,Vmaxpu=1.5,model=1,daily=RES1_5,status=variable
new load.3000408659M1 bus1=RML1060736315.2.0,Phases=1,kv=0.12,kW=0.62086,pf=0.92,Vminpu=0.92,Vmaxpu=1.5,model=1,daily=RES3_7,status=variable
new load.3000408661M1 bus1=RML1051129127.1.0,Phases=1,kv=0.12,kW=1.047,pf=0.92,Vminpu=0.92,Vmaxpu=1.5,model=1,daily=RES1_5,status=variable
new load.3000408662M1 bus1=RML1051129162.2.0,Phases=1,kv=0.12,kW=0.68182,pf=0.92,Vminpu=0.92,Vmaxpu=1.5,model=1,daily=RES2_6,status=variable
new load.3000408663M1 bus1=RML1051129043.1.0,Phases=1,kv=0.12,kW=0.88168,pf=0.92,Vminpu=0.92,Vmaxpu=1.5,model=1,daily=RES1_5,status=variable
new load.3000408636M1 bus1=RML1051129071.2.0,Phases=1,kv=0.12,kW=0.22042,pf=0.92,Vminpu=0.92,Vmaxpu=1.5,model=1,daily=RES1_5,status=variable
new load.3000408637M1 bus1=RML1051129057.1.0,Phases=1,kv=0.12,kW=0.45662,pf=0.92,Vminpu=0.92,Vmaxpu=1.5,model=1,daily=RES2_6,status=variable
new load.3000408638M1 bus1=RML1056853564.1.2.0,Phases=2,kv=0.24,kW=1.94766,pf=0.92,Vminpu=0.92,Vmaxpu=1.5,model=1,daily=COM2_10,status=variable
new load.3000408640M1 bus1=RML1051129183.2.0,Phases=1,kv=0.12,kW=1.30416,pf=0.92,Vminpu=0.92,Vmaxpu=1.5,model=1,daily=RES1_5,status=variable
new load.3000408641M1 bus1=RML1051129190.1.2.0,Phases=2,kv=0.24,kW=1.1021,pf=0.92,Vminpu=0.92,Vmaxpu=1.5,model=1,daily=RES1_5,status=variable
new load.3000408642M1 bus1=RML1051129197.2.0,Phases=1,kv=0.12,kW=0.62552,pf=0.92,Vminpu=0.92,Vmaxpu=1.5,model=1,daily=RES2_6,status=variable
new load.3000408623M1 bus1=RML1051129050.1.0,Phases=1,kv=0.12,kW=0.80822,pf=0.92,Vminpu=0.92,Vmaxpu=1.5,model=1,daily=RES1_5,status=variable
new load.3001308757M1 bus1=RML1051129722.1.0,Phases=1,kv=0.12,kW=0.68242,pf=0.92,Vminpu=0.92,Vmaxpu=1.5,model=1,daily=RES2_4,status=variable
new load.3001308758M1 bus1=RML1051129652.1.0,Phases=1,kv=0.12,kW=1.3456,pf=0.92,Vminpu=0.92,Vmaxpu=1.5,model=1,daily=RES2_4,status=variable
new load.3001308770M1 bus1=RML1051129729.2.0,Phases=1,kv=0.12,kW=0.0491,pf=0.92,Vminpu=0.92,Vmaxpu=1.5,model=1,daily=RES1_2,status=variable
new load.3001308771M1 bus1=RML1051129708.2.0,Phases=1,kv=0.12,kW=0.43204,pf=0.92,Vminpu=0.92,Vmaxpu=1.5,model=1,daily=RES1_2,status=variable
new load.3001308772M1 bus1=RML1051129813.2.0,Phases=1,kv=0.12,kW=0.98038,pf=0.92,Vminpu=0.92,Vmaxpu=1.5,model=1,daily=RES2_4,status=variable
new load.3001308773M1 bus1=RML1051129806.2.0,Phases=1,kv=0.12,kW=1.13416,pf=0.92,Vminpu=0.92,Vmaxpu=1.5,model=1,daily=RES2_4,status=variable