new line.TR1003043 bus1=BMT172903599.3,bus2=BMT172903600.3,Phases=1,Linecode=CAB102_3_1,Length=0.075774000,faultrate=0.1,pctperm=20,repair=3,units=km
new line.TR1003057 bus1=BMT172938503.1,bus2=BMT3677372B.1,Phases=1,Linecode=CAB202_3_1,Length=0.042971000,faultrate=0.1,pctperm=20,repair=3,units=km
new line.TR1003064 bus1=BMT172938503.1.2.3,bus2=BMT172938505.1.2.3,Phases=3,Linecode=CAB108_3_3,Length=0.048040000,faultrate=0.1,pctperm=20,repair=3,units=km
new line.TR1003071 bus1=BMT172938506.2,bus2=BMT172938507.2,Phases=1,Linecode=CAB103_3_1,Length=0.042503000,faultrate=0.1,pctperm=20,repair=3,units=km
new line.TR1003085 bus1=BMT1752113B.3,bus2=BMT172938512.3,Phases=1,Linecode=CAB102_3_1,Length=0.046419000,faultrate=0.1,pctperm=20,repair=3,units=km
new line.TR1003106 bus1=BMT172918251.3,bus2=BMT2791200B.3,Phases=1,Linecode=CAB202_3_1,Length=0.107714000,faultrate=0.1,pctperm=20,repair=3,units=km
new line.TR1003113 bus1=BMT169158505.3,bus2=BMT169158506.3,Phases=1,Linecode=CAB202_3_1,Length=0.131601000,faultrate=0.1,pctperm=20,repair=3,units=km
new line.TR1003120 bus1=BMT125210705.1.2.3,bus2=BMT172938519.1.2.3,Phases=3,Linecode=CAB108_3_3,Length=0.044301000,faultrate=0.1,pctperm=20,repair=3,units=km
new line.TR1003127 bus1=BMT172938522.1,bus2=BMT172938534.1,Phases=1,Linecode=CAB202_3_1,Length=0.087167000,faultrate=0.1,pctperm=20,repair=3,units=km
new line.TR1003141 bus1=BMT172938523.3,bus2=BMT172938524.3,Phases=1,Linecode=CAB103_3_1,Length=0.059932000,faultrate=0.1,pctperm=20,repair=3,units=km
new line.TR1003162 bus1=BMT172924946.3,bus2=BMT1752162B.3,Phases=1,Linecode=CAB202_3_1,Length=0.107751000,faultrate=0.1,pctperm=20,repair=3,units=km
new line.TR1003183 bus1=BMT1752162B.3,bus2=BMT3680522B.3,Phases=1,Linecode=CAB202_3_1,Length=0.129890000,faultrate=0.1,pctperm=20,repair=3,units=km
new line.TR1003190 bus1=BMT1752169B.3,bus2=BMT626814B.3,Phases=1,Linecode=CAB202_3_1,Length=0.089058000,faultrate=0.1,pctperm=20,repair=3,units=km
new line.TR1003197 bus1=BMT1752169B.3,bus2=BMT3680543B.3,Phases=1,Linecode=CAB202_3_1,Length=0.014324000,faultrate=0.1,pctperm=20,repair=3,units=km
new line.TR1003204 bus1=BMT172924947.3,bus2=BMT3680571B.3,Phases=1,Linecode=CAB202_3_1,Length=0.125306000,faultrate=0.1,pctperm=20,repair=3,units=km
new line.TR1003211 bus1=BMT172924947.3,bus2=BMT172924948.3,Phases=1,Linecode=CAB103_3_1,Length=0.032216000,faultrate=0.1,pctperm=20,repair=3,units=km
new line.TR1003218 bus1=BMT125223802.1,bus2=BMT125223809.1,Phases=1,Linecode=CAB202_3_1,Length=0.099518000,faultrate=0.1,pctperm=20,repair=3,units=km
new line.TR1003232 bus1=BMT125223844.3,bus2=BMT172925066.3,Phases=1,Linecode=CAB202_3_1,Length=0.151665000,faultrate=0.1,pctperm=20,repair=3,units=km
new line.TR1003239 bus1=BMT153694274.3,bus2=BMT4027491B.3,Phases=1,Linecode=CAB202_3_1,Length=0.202281000,faultrate=0.1,pctperm=20,repair=3,units=km
new line.TR1003246 bus1=BMT172937141.3,bus2=BMT172937142.3,Phases=1,Linecode=CAB202_3_1,Length=0.038094000,faultrate=0.1,pctperm=20,repair=3,units=km
new line.TR1003253 bus1=BMT172937141.1.2.3,bus2=BMT3681810B.1.2.3,Phases=3,Linecode=CAB202_3_3,Length=0.127397000,faultrate=0.1,pctperm=20,repair=3,units=km
new line.TR1003260 bus1=BMT125223809.1,bus2=BMT125223816.1,Phases=1,Linecode=CAB102_3_1,Length=0.081666000,faultrate=0.1,pctperm=20,repair=3,units=km
new line.TR1003267 bus1=BMT125223809.1,bus2=BMT125223823.1,Phases=1,Linecode=CAB202_3_1,Length=0.170904000,faultrate=0.1,pctperm=20,repair=3,units=km
new line.TR1003274 bus1=BMT125223809.1,bus2=BMT4655335B.1,Phases=1,Linecode=CAB202_3_1,Length=0.123277000,faultrate=0.1,pctperm=20,repair=3,units=km
new line.TR1003281 bus1=BMT125210796.1.2.3,bus2=BMT3681817B.1.2.3,Phases=3,Linecode=CAB202_3_3,Length=0.115999000,faultrate=0.1,pctperm=20,repair=3,units=km
new line.TR1003288 bus1=BMT165108113.1,bus2=BMT3681887B.1,Phases=1,Linecode=CAB202_3_1,Length=0.026694000,faultrate=0.1,pctperm=20,repair=3,units=km
new line.TR1003295 bus1=BMT125210803.1.2.3,bus2=BMT3682762B.1.2.3,Phases=3,Linecode=CAB202_3_3,Length=0.152838000,faultrate=0.1,pctperm=20,repair=3,units=km
new line.TR1003302 bus1=BMT125210810.1,bus2=BMT125210817.1,Phases=1,Linecode=CAB202_3_1,Length=0.139285000,faultrate=0.1,pctperm=20,repair=3,units=km
new line.TR1003309 bus1=BMT125223438.1.2.3,bus2=BMT3682853B.1.2.3,Phases=3,Linecode=CAB202_3_3,Length=0.113363000,faultrate=0.1,pctperm=20,repair=3,units=km
new line.TR1003316 bus1=BMT125210810.1.2.3,bus2=BMT3682923B.1.2.3,Phases=3,Linecode=CAB202_3_3,Length=0.127251000,faultrate=0.1,pctperm=20,repair=3,units=km
new line.TR1003323 bus1=BMT125221667.2,bus2=BMT1752260B.2,Phases=1,Linecode=CAB202_3_1,Length=0.092692000,faultrate=0.1,pctperm=20,repair=3,units=km
new line.TR1003330 bus1=BMT125210880.1.2.3,bus2=BMT3680921B.1.2.3,Phases=3,Linecode=CAB202_3_3,Length=0.128628000,faultrate=0.1,pctperm=20,repair=3,units=km
new line.TR1003337 bus1=BMT125210817.1,bus2=BMT2396995B.1,Phases=1,Linecode=CAB202_3_1,Length=0.119467000,faultrate=0.1,pctperm=20,repair=3,units=km
new line.TR1003344 bus1=BMT125210817.1,bus2=BMT125210838.1,Phases=1,Linecode=CAB202_3_1,Length=0.001001000,faultrate=0.1,pctperm=20,repair=3,units=km
new line.TR1003351 bus1=BMT125210852.1,bus2=BMT125210859.1,Phases=1,Linecode=CAB102_3_1,Length=0.038291000,faultrate=0.1,pctperm=20,repair=3,units=km
new line.TR1003358 bus1=BMT125210852.1,bus2=BMT3682888B.1,Phases=1,Linecode=CAB202_3_1,Length=0.104851000,faultrate=0.1,pctperm=20,repair=3,units=km
new line.TR1003365 bus1=BMT125218230.1,bus2=BMT125218237.1,Phases=1,Linecode=CAB202_3_1,Length=0.160591000,faultrate=0.1,pctperm=20,repair=3,units=km
new line.TR1003372 bus1=BMT125210887.1.2.3,bus2=BMT3115020B.1.2.3,Phases=3,Linecode=CAB202_3_3,Length=0.130148000,faultrate=0.1,pctperm=20,repair=3,units=km
new line.TR1003379 bus1=BMT1752260B.2,bus2=BMT3683245B.2,Phases=1,Linecode=CAB202_3_1,Length=0.102593000,faultrate=0.1,pctperm=20,repair=3,units=km
new line.TR1003386 bus1=BMT125223389.2,bus2=BMT3683350B.2,Phases=1,Linecode=CAB202_3_1,Length=0.104889000,faultrate=0.1,pctperm=20,repair=3,units=km
new line.TR1003393 bus1=BMT125221688.2,bus2=BMT3683364B.2,Phases=1,Linecode=CAB202_3_1,Length=0.121679000,faultrate=0.1,pctperm=20,repair=3,units=km
new line.TR1003400 bus1=BMT125223396.2,bus2=BMT125223403.2,Phases=1,Linecode=CAB202_3_1,Length=0.121127000,faultrate=0.1,pctperm=20,repair=3,units=km
new line.TR1003407 bus1=BMT134212649.2,bus2=BMT3683413B.2,Phases=1,Linecode=CAB202_3_1,Length=0.092929000,faultrate=0.1,pctperm=20,repair=3,units=km
new line.TR1003414 bus1=BMT1752281B.2,bus2=BMT125221695.2,Phases=1,Linecode=CAB202_3_1,Length=0.113323000,faultrate=0.1,pctperm=20,repair=3,units=km
new line.TR1003421 bus1=BMT125221695.2,bus2=BMT125221702.2,Phases=1,Linecode=CAB103_3_1,Length=0.030426000,faultrate=0.1,pctperm=20,repair=3,units=km
new line.TR1003428 bus1=BMT125221695.2,bus2=BMT3683714B.2,Phases=1,Linecode=CAB202_3_1,Length=0.112339000,faultrate=0.1,pctperm=20,repair=3,units=km
new line.TR1003435 bus1=BMT125221709.2,bus2=BMT125221716.2,Phases=1,Linecode=CAB102_3_1,Length=0.061245000,faultrate=0.1,pctperm=20,repair=3,units=km
new line.TR1003442 bus1=BMT166028285.2,bus2=BMT3488470B.2,Phases=1,Linecode=CAB202_3_1,Length=0.098472000,faultrate=0.1,pctperm=20,repair=3,units=km
new line.TR1003449 bus1=BMT125221709.2,bus2=BMT3683735B.2,Phases=1,Linecode=CAB202_3_1,Length=0.154444000,faultrate=0.1,pctperm=20,repair=3,units=km
new line.TR1003456 bus1=BMT125221723.2,bus2=BMT125221730.2,Phases=1,Linecode=CAB202_3_1,Length=0.139174000,faultrate=0.1,pctperm=20,repair=3,units=km
new line.TR1003463 bus1=BMT125221723.2,bus2=BMT3684001B.2,Phases=1,Linecode=CAB202_3_1,Length=0.117970000,faultrate=0.1,pctperm=20,repair=3,units=km
new line.TR1003470 bus1=BMT1752309B.2,bus2=BMT1752316B.2,Phases=1,Linecode=CAB202_3_1,Length=0.092735000,faultrate=0.1,pctperm=20,repair=3,units=km
new line.TR1003477 bus1=BMT1752316B.2,bus2=BMT125221737.2,Phases=1,Linecode=CAB202_3_1,Length=0.113451000,faultrate=0.1,pctperm=20,repair=3,units=km
new line.TR1003484 bus1=BMT125223116.2,bus2=BMT3684036B.2,Phases=1,Linecode=CAB202_3_1,Length=0.126896000,faultrate=0.1,pctperm=20,repair=3,units=km
new line.TR1003491 bus1=BMT125221737.2,bus2=BMT3684043B.2,Phases=1,Linecode=CAB202_3_1,Length=0.148898000,faultrate=0.1,pctperm=20,repair=3,units=km
new line.TR1003498 bus1=BMT1752330B.2,bus2=BMT3684155B.2,Phases=1,Linecode=CAB202_3_1,Length=0.144071000,faultrate=0.1,pctperm=20,repair=3,units=km
new line.TR1003505 bus1=BMT125223123.2,bus2=BMT125223130.2,Phases=1,Linecode=CAB202_3_1,Length=0.016499000,faultrate=0.1,pctperm=20,repair=3,units=km
new line.TR1003512 bus1=BMT1752344B.2,bus2=BMT1752351B.2,Phases=1,Linecode=CAB202_3_1,Length=0.103520000,faultrate=0.1,pctperm=20,repair=3,units=km
new line.TR1003519 bus1=BMT1752351B.2,bus2=BMT3684169B.2,Phases=1,Linecode=CAB202_3_1,Length=0.108269000,faultrate=0.1,pctperm=20,repair=3,units=km
new line.TR1003526 bus1=BMT125221751.2,bus2=BMT169713806.2,Phases=1,Linecode=CAB202_3_1,Length=0.153478000,faultrate=0.1,pctperm=20,repair=3,units=km
new line.TR1003533 bus1=BMT169713806.2,bus2=BMT3684204B.2,Phases=1,Linecode=CAB202_3_1,Length=0.101809000,faultrate=0.1,pctperm=20,repair=3,units=km
new line.TR1003540 bus1=BMT169713806.2,bus2=BMT3684211B.2,Phases=1,Linecode=CAB202_3_1,Length=0.138250000,faultrate=0.1,pctperm=20,repair=3,units=km
new line.TR1003547 bus1=BMT1752372B.2,bus2=BMT3684225B.2,Phases=1,Linecode=CAB202_3_1,Length=0.143193000,faultrate=0.1,pctperm=20,repair=3,units=km
new line.TR1003554 bus1=BMT169713808.2,bus2=BMT3684239B.2,Phases=1,Linecode=CAB202_3_1,Length=0.090307000,faultrate=0.1,pctperm=20,repair=3,units=km
new line.TR1003561 bus1=BMT169713808.2,bus2=BMT3684246B.2,Phases=1,Linecode=CAB202_3_1,Length=0.121855000,faultrate=0.1,pctperm=20,repair=3,units=km
new line.TR1003568 bus1=BMT1752386B.2,bus2=BMT3681845B.2,Phases=1,Linecode=CAB202_3_1,Length=0.144403000,faultrate=0.1,pctperm=20,repair=3,units=km
new line.TR1003575 bus1=BMT1752393B.2,bus2=BMT169713815.2,Phases=1,Linecode=CAB202_3_1,Length=0.122048000,faultrate=0.1,pctperm=20,repair=3,units=km
new line.TR1003582 bus1=BMT125223060.2,bus2=BMT125223067.2,Phases=1,Linecode=CAB202_3_1,Length=0.125946000,faultrate=0.1,pctperm=20,repair=3,units=km
new line.TR1003589 bus1=BMT125221821.2,bus2=BMT169713819.2,Phases=1,Linecode=CAB202_3_1,Length=0.166068000,faultrate=0.1,pctperm=20,repair=3,units=km
new line.TR1003596 bus1=BMT125223067.2,bus2=BMT125223074.2,Phases=1,Linecode=CAB103_3_1,Length=0.058751000,faultrate=0.1,pctperm=20,repair=3,units=km
new line.TR1003603 bus1=BMT125223067.2,bus2=BMT3681999B.2,Phases=1,Linecode=CAB202_3_1,Length=0.102216000,faultrate=0.1,pctperm=20,repair=3,units=km
new line.TR1003610 bus1=BMT169713821.2,bus2=BMT3684680B.2,Phases=1,Linecode=CAB202_3_1,Length=0.095672000,faultrate=0.1,pctperm=20,repair=3,units=km
new line.TR1003617 bus1=BMT169713821.2,bus2=BMT3684687B.2,Phases=1,Linecode=CAB202_3_1,Length=0.202564000,faultrate=0.1,pctperm=20,repair=3,units=km
new line.TR1003624 bus1=BMT125221856.2,bus2=BMT3684708B.2,Phases=1,Linecode=CAB202_3_1,Length=0.195893000,faultrate=0.1,pctperm=20,repair=3,units=km
new line.TR1003631 bus1=BMT125222955.2,bus2=BMT125222962.2,Phases=1,Linecode=CAB202_3_1,Length=0.172654000,faultrate=0.1,pctperm=20,repair=3,units=km
new line.TR1003638 bus1=BMT169713824.2,bus2=BMT169713825.2,Phases=1,Linecode=CAB103_3_1,Length=0.058032000,faultrate=0.1,pctperm=20,repair=3,units=km
new line.TR1003645 bus1=BMT169713824.2,bus2=BMT169713826.2,Phases=1,Linecode=CAB202_3_1,Length=0.168995000,faultrate=0.1,pctperm=20,repair=3,units=km
new line.TR1003652 bus1=BMT125221884.2,bus2=BMT125221905.2,Phases=1,Linecode=CAB202_3_1,Length=0.172259000,faultrate=0.1,pctperm=20,repair=3,units=km
new line.TR1003659 bus1=BMT125222941.2,bus2=BMT3684939B.2,Phases=1,Linecode=CAB202_3_1,Length=0.106108000,faultrate=0.1,pctperm=20,repair=3,units=km
new line.TR1003666 bus1=BMT125222780.2,bus2=BMT125222787.2,Phases=1,Linecode=CAB202_3_1,Length=0.133877000,faultrate=0.1,pctperm=20,repair=3,units=km
new line.TR1003673 bus1=BMT125221905.2,bus2=BMT3685058B.2,Phases=1,Linecode=CAB202_3_1,Length=0.128876000,faultrate=0.1,pctperm=20,repair=3,units=km
new line.TR1003680 bus1=BMT1752449B.2,bus2=BMT3685072B.2,Phases=1,Linecode=CAB202_3_1,Length=0.109185000,faultrate=0.1,pctperm=20,repair=3,units=km
new line.TR1003687 bus1=BMT125221947.2,bus2=BMT125221954.2,Phases=1,Linecode=CAB203_3_1,Length=0.123470000,faultrate=0.1,pctperm=20,repair=3,units=km
new line.TR1003694 bus1=BMT125221947.2,bus2=BMT3680802B.2,Phases=1,Linecode=CAB202_3_1,Length=0.115362000,faultrate=0.1,pctperm=20,repair=3,units=km
new line.TR1003701 bus1=BMT1752463B.2,bus2=BMT3680879B.2,Phases=1,Linecode=CAB202_3_1,Length=0.119143000,faultrate=0.1,pctperm=20,repair=3,units=km
new line.TR1003708 bus1=BMT1752470B.1,bus2=BMT3666347B.1,Phases=1,Linecode=CAB202_3_1,Length=0.152261000,faultrate=0.1,pctperm=20,repair=3,units=km
new line.TR1003715 bus1=BMT125210894.1,bus2=BMT3681159B.1,Phases=1,Linecode=CAB202_3_1,Length=0.060860000,faultrate=0.1,pctperm=20,repair=3,units=km
new line.TR1003722 bus1=BMT125210894.1.2.3,bus2=BMT3681271B.1.2.3,Phases=3,Linecode=CAB202_3_3,Length=0.169076000,faultrate=0.1,pctperm=20,repair=3,units=km
new line.TR1003729 bus1=BMT170760277.3,bus2=BMT170760278.3,Phases=1,Linecode=CAB202_3_1,Length=0.121679000,faultrate=0.1,pctperm=20,repair=3,units=km
new line.TR1003736 bus1=BMT125210908.1.2.3,bus2=BMT3681593B.1.2.3,Phases=3,Linecode=CAB202_3_3,Length=0.152959000,faultrate=0.1,pctperm=20,repair=3,units=km
new line.TR1003743 bus1=BMT125210915.1.2.3,bus2=BMT3682601B.1.2.3,Phases=3,Linecode=CAB202_3_3,Length=0.151549000,faultrate=0.1,pctperm=20,repair=3,units=km
new line.TR1003750 bus1=BMT134813648.1,bus2=BMT3682608B.1,Phases=1,Linecode=CAB203_3_1,Length=0.052175000,faultrate=0.1,pctperm=20,repair=3,units=km
new line.TR1003757 bus1=BMT170760278.3,bus2=BMT170760279.3,Phases=1,Linecode=CAB203_3_1,Length=0.092064000,faultrate=0.1,pctperm=20,repair=3,units=km
new line.TR1003764 bus1=BMT170760278.3,bus2=BMT125217649.3,Phases=1,Linecode=CAB202_3_1,Length=0.111910000,faultrate=0.1,pctperm=20,repair=3,units=km
new line.TR1003771 bus1=BMT170760278.3,bus2=BMT1752512B.3,Phases=1,Linecode=CAB202_3_1,Length=0.074333000,faultrate=0.1,pctperm=20,repair=3,units=km
new line.TR1003778 bus1=BMT125218188.3,bus2=BMT125218195.3,Phases=1,Linecode=CAB202_3_1,Length=0.059438000,faultrate=0.1,pctperm=20,repair=3,units=km
new line.TR1003785 bus1=BMT125217649.3,bus2=BMT3684568B.3,Phases=1,Linecode=CAB202_3_1,Length=0.176711000,faultrate=0.1,pctperm=20,repair=3,units=km
new line.TR1003792 bus1=BMT1752512B.3,bus2=BMT170760280.3,Phases=1,Linecode=CAB202_3_1,Length=0.055826000,faultrate=0.1,pctperm=20,repair=3,units=km
new line.TR1003799 bus1=BMT170760282.3,bus2=BMT170760284.3,Phases=1,Linecode=CAB202_3_1,Length=0.055996000,faultrate=0.1,pctperm=20,repair=3,units=km
new line.TR1003806 bus1=BMT170760282.3,bus2=BMT170760285.3,Phases=1,Linecode=CAB202_3_1,Length=0.184838000,faultrate=0.1,pctperm=20,repair=3,units=km
new line.TR1003813 bus1=BMT125217698.3,bus2=BMT170760288.3,Phases=1,Linecode=CAB202_3_1,Length=0.137666000,faultrate=0.1,pctperm=20,repair=3,units=km
new line.TR1003820 bus1=BMT125218132.3,bus2=BMT3684652B.3,Phases=1,Linecode=CAB202_3_1,Length=0.090286000,faultrate=0.1,pctperm=20,repair=3,units=km
new line.TR1003827 bus1=BMT125217698.3,bus2=BMT4870949B.3,Phases=1,Linecode=CAB202_3_1,Length=0.069842000,faultrate=0.1,pctperm=20,repair=3,units=km
new line.TR1003834 bus1=BMT170760288.3,bus2=BMT3684771B.3,Phases=1,Linecode=CAB202_3_1,Length=0.133896000,faultrate=0.1,pctperm=20,repair=3,units=km
new line.TR1003841 bus1=BMT170760288.3,bus2=BMT3684778B.3,Phases=1,Linecode=CAB202_3_1,Length=0.156299000,faultrate=0.1,pctperm=20,repair=3,units=km
new line.TR1003848 bus1=BMT170760291.3,bus2=BMT170760292.3,Phases=1,Linecode=CAB103_3_1,Length=0.063271000,faultrate=0.1,pctperm=20,repair=3,units=km
new line.TR1003855 bus1=BMT170760291.3,bus2=BMT3684792B.3,Phases=1,Linecode=CAB202_3_1,Length=0.158858000,faultrate=0.1,pctperm=20,repair=3,units=km
new line.TR1003862 bus1=BMT170760291.3,bus2=BMT170760294.3,Phases=1,Linecode=CAB103_3_1,Length=0.036360000,faultrate=0.1,pctperm=20,repair=3,units=km
new line.TR1003869 bus1=BMT170760293.3,bus2=BMT170760295.3,Phases=1,Linecode=CAB202_3_1,Length=0.075800000,faultrate=0.1,pctperm=20,repair=3,units=km
new line.TR1003876 bus1=BMT170760293.3,bus2=BMT170760296.3,Phases=1,Linecode=CAB103_3_1,Length=0.065080000,faultrate=0.1,pctperm=20,repair=3,units=km
new line.TR1003883 bus1=BMT170760295.3,bus2=BMT170760297.3,Phases=1,Linecode=CAB202_3_1,Length=0.114771000,faultrate=0.1,pctperm=20,repair=3,units=km
new line.TR1003890 bus1=BMT170760295.3,bus2=BMT1752561B.3,Phases=1,Linecode=CAB202_3_1,Length=0.122821000,faultrate=0.1,pctperm=20,repair=3,units=km
new line.TR1003897 bus1=BMT1752561B.3,bus2=BMT170760298.3,Phases=1,Linecode=CAB202_3_1,Length=0.158208000,faultrate=0.1,pctperm=20,repair=3,units=km
new line.TR1003904 bus1=BMT170760298.3,bus2=BMT170760299.3,Phases=1,Linecode=CAB103_3_1,Length=0.033435000,faultrate=0.1,pctperm=20,repair=3,units=km
new line.TR1003911 bus1=BMT170760298.3,bus2=BMT168452883.3,Phases=1,Linecode=CAB202_3_1,Length=0.225690000,faultrate=0.1,pctperm=20,repair=3,units=km
new line.TR1003918 bus1=BMT170760298.3,bus2=BMT125217796.3,Phases=1,Linecode=CAB202_3_1,Length=0.005388000,faultrate=0.1,pctperm=20,repair=3,units=km
new line.TR1003925 bus1=BMT125217901.3,bus2=BMT1752582B.3,Phases=1,Linecode=CAB202_3_1,Length=0.055176000,faultrate=0.1,pctperm=20,repair=3,units=km
new line.TR1003932 bus1=BMT125217901.3,bus2=BMT125217915.3,Phases=1,Linecode=CAB104_3_1,Length=0.041320000,faultrate=0.1,pctperm=20,repair=3,units=km
new line.TR1003939 bus1=BMT1752582B.3,bus2=BMT125217908.3,Phases=1,Linecode=CAB202_3_1,Length=0.060835000,faultrate=0.1,pctperm=20,repair=3,units=km
new line.TR1003946 bus1=BMT1752589B.3,bus2=BMT3685107B.3,Phases=1,Linecode=CAB202_3_1,Length=0.131235000,faultrate=0.1,pctperm=20,repair=3,units=km
new line.TR1003953 bus1=BMT125217929.3,bus2=BMT3682223B.3,Phases=1,Linecode=CAB202_3_1,Length=0.111129000,faultrate=0.1,pctperm=20,repair=3,units=km
new line.TR1003960 bus1=BMT125218104.3,bus2=BMT125218111.3,Phases=1,Linecode=CAB202_3_1,Length=0.086086000,faultrate=0.1,pctperm=20,repair=3,units=km
new line.TR1003967 bus1=BMT125217936.3,bus2=BMT125217943.3,Phases=1,Linecode=CAB103_3_1,Length=0.070859000,faultrate=0.1,pctperm=20,repair=3,units=km
new line.TR1003974 bus1=BMT125217936.3,bus2=BMT3682230B.3,Phases=1,Linecode=CAB202_3_1,Length=0.204494000,faultrate=0.1,pctperm=20,repair=3,units=km
new line.TR1003981 bus1=BMT125217957.3,bus2=BMT1752617B.3,Phases=1,Linecode=CAB202_3_1,Length=0.136538000,faultrate=0.1,pctperm=20,repair=3,units=km
new line.TR1003988 bus1=BMT125218055.3,bus2=BMT4621931B.3,Phases=1,Linecode=CAB202_3_1,Length=0.083902000,faultrate=0.1,pctperm=20,repair=3,units=km
new line.TR1003995 bus1=BMT1752617B.3,bus2=BMT125217964.3,Phases=1,Linecode=CAB202_3_1,Length=0.116343000,faultrate=0.1,pctperm=20,repair=3,units=km
new line.TR1004002 bus1=BMT125217978.3,bus2=BMT125217985.3,Phases=1,Linecode=CAB202_3_1,Length=0.134470000,faultrate=0.1,pctperm=20,repair=3,units=km
new line.TR1004009 bus1=BMT125217978.3,bus2=BMT125217992.3,Phases=1,Linecode=CAB103_3_1,Length=0.051944000,faultrate=0.1,pctperm=20,repair=3,units=km
new line.TR1004016 bus1=BMT125217488.1,bus2=BMT125217495.1,Phases=1,Linecode=CAB202_3_1,Length=0.134879000,faultrate=0.1,pctperm=20,repair=3,units=km
new line.TR1004023 bus1=BMT125210950.1.2.3,bus2=BMT3679486B.1.2.3,Phases=3,Linecode=CAB202_3_3,Length=0.105725000,faultrate=0.1,pctperm=20,repair=3,units=km
new line.TR1004030 bus1=BMT125217446.3,bus2=BMT3679752B.3,Phases=1,Linecode=CAB202_3_1,Length=0.082410000,faultrate=0.1,pctperm=20,repair=3,units=km
new line.TR1004037 bus1=BMT125210985.1.2.3,bus2=BMT3679892B.1.2.3,Phases=3,Linecode=CAB202_3_3,Length=0.102060000,faultrate=0.1,pctperm=20,repair=3,units=km
new line.TR1004044 bus1=BMT1752645B.1.2.3,bus2=BMT3679913B.1.2.3,Phases=3,Linecode=CAB202_3_3,Length=0.135884000,faultrate=0.1,pctperm=20,repair=3,units=km
new line.TR1004051 bus1=BMT125217453.3,bus2=BMT3679773B.3,Phases=1,Linecode=CAB202_3_1,Length=0.147686000,faultrate=0.1,pctperm=20,repair=3,units=km
new line.TR1004058 bus1=BMT125217453.3,bus2=BMT3679843B.3,Phases=1,Linecode=CAB202_3_1,Length=0.141410000,faultrate=0.1,pctperm=20,repair=3,units=km
new line.TR1004065 bus1=BMT125217432.1,bus2=BMT1752673B.1,Phases=1,Linecode=CAB202_3_1,Length=0.084792000,faultrate=0.1,pctperm=20,repair=3,units=km
new line.TR1004072 bus1=BMT125210992.1.2.3,bus2=BMT3680116B.1.2.3,Phases=3,Linecode=CAB202_3_3,Length=0.129365000,faultrate=0.1,pctperm=20,repair=3,units=km
new line.TR1004079 bus1=BMT125217404.3,bus2=BMT3680207B.3,Phases=1,Linecode=CAB202_3_1,Length=0.147398000,faultrate=0.1,pctperm=20,repair=3,units=km
new line.TR1004086 bus1=BMT125210999.1.2.3,bus2=BMT3691351B.1.2.3,Phases=3,Linecode=CAB202_3_3,Length=0.122085000,faultrate=0.1,pctperm=20,repair=3,units=km
new line.TR1004093 bus1=BMT1752673B.1,bus2=BMT3679962B.1,Phases=1,Linecode=CAB202_3_1,Length=0.174997000,faultrate=0.1,pctperm=20,repair=3,units=km
new line.TR1004100 bus1=BMT1752680B.1,bus2=BMT3680004B.1,Phases=1,Linecode=CAB202_3_1,Length=0.097660000,faultrate=0.1,pctperm=20,repair=3,units=km
new line.TR1004107 bus1=BMT125211006.1.2.3,bus2=BMT1752722B.1.2.3,Phases=3,Linecode=CAB202_3_3,Length=0.143280000,faultrate=0.1,pctperm=20,repair=3,units=km
new line.TR1004114 bus1=BMT168183339.1.2.3,bus2=BMT3115041B.1.2.3,Phases=3,Linecode=CAB202_3_3,Length=0.076135000,faultrate=0.1,pctperm=20,repair=3,units=km
new line.TR1004121 bus1=BMT1752694B.3,bus2=BMT125217411.3,Phases=1,Linecode=CAB202_3_1,Length=0.101178000,faultrate=0.1,pctperm=20,repair=3,units=km
new line.TR1004128 bus1=BMT125217411.3,bus2=BMT125217418.3,Phases=1,Linecode=CAB202_3_1,Length=0.068123000,faultrate=0.1,pctperm=20,repair=3,units=km
new line.TR1004135 bus1=BMT125217411.3,bus2=BMT3680242B.3,Phases=1,Linecode=CAB202_3_1,Length=0.106555000,faultrate=0.1,pctperm=20,repair=3,units=km
new line.TR1004142 bus1=BMT1752708B.3,bus2=BMT3680270B.3,Phases=1,Linecode=CAB202_3_1,Length=0.338914000,faultrate=0.1,pctperm=20,repair=3,units=km
new line.TR1004149 bus1=BMT168183340.2,bus2=BMT168183341.2,Phases=1,Linecode=CAB202_3_1,Length=0.116463000,faultrate=0.1,pctperm=20,repair=3,units=km
new line.TR1004156 bus1=BMT168183340.1.2.3,bus2=BMT3685674B.1.2.3,Phases=3,Linecode=CAB202_3_3,Length=0.062097000,faultrate=0.1,pctperm=20,repair=3,units=km
new line.TR1004163 bus1=BMT1752722B.1.2.3,bus2=BMT3691414B.1.2.3,Phases=3,Linecode=CAB202_3_3,Length=0.142944000,faultrate=0.1,pctperm=20,repair=3,units=km
new line.TR1004170 bus1=BMT165937104.3,bus2=BMT3691463B.3,Phases=1,Linecode=CAB202_3_1,Length=0.114483000,faultrate=0.1,pctperm=20,repair=3,units=km
new line.TR1004177 bus1=BMT165937104.1.2.3,bus2=BMT3692891B.1.2.3,Phases=3,Linecode=CAB202_3_3,Length=0.125767000,faultrate=0.1,pctperm=20,repair=3,units=km
new line.TR1004191 bus1=BMT133407334.1.2.3,bus2=BMT150075040.1.2.3,Phases=3,Linecode=CAB202_3_3,Length=0.156400000,faultrate=0.1,pctperm=20,repair=3,units=km
new line.TR1004198 bus1=BMT162376736.1,bus2=BMT3694340B.1,Phases=1,Linecode=CAB202_3_1,Length=0.116020000,faultrate=0.1,pctperm=20,repair=3,units=km
new line.TR1004205 bus1=BMT150113135.1.2.3,bus2=BMT1752764B.1.2.3,Phases=3,Linecode=CAB103_3_3,Length=0.064057000,faultrate=0.1,pctperm=20,repair=3,units=km
new line.TR1004212 bus1=BMT150075040.1.2.3,bus2=BMT165936987.1.2.3,Phases=3,Linecode=CAB202_3_3,Length=0.154495000,faultrate=0.1,pctperm=20,repair=3,units=km
new line.TR1004219 bus1=BMT162376737.1,bus2=BMT162376738.1,Phases=1,Linecode=CAB103_3_1,Length=0.077445000,faultrate=0.1,pctperm=20,repair=3,units=km
new line.TR1004226 bus1=BMT162376737.1,bus2=BMT162376739.1,Phases=1,Linecode=CAB202_3_1,Length=0.073459000,faultrate=0.1,pctperm=20,repair=3,units=km
new line.TR1004233 bus1=BMT1752764B.1.2.3,bus2=BMT150113136.1.2.3,Phases=3,Linecode=CAB103_3_3,Length=0.078669000,faultrate=0.1,pctperm=20,repair=3,units=km
new line.TR1004240 bus1=BMT165936988.1,bus2=BMT165936990.1,Phases=1,Linecode=CAB103_3_1,Length=0.019858000,faultrate=0.1,pctperm=20,repair=3,units=km
new line.TR1004247 bus1=BMT165936988.1.2.3,bus2=BMT3695894B.1.2.3,Phases=3,Linecode=CAB202_3_3,Length=0.147030000,faultrate=0.1,pctperm=20,repair=3,units=km
new line.TR1004254 bus1=BMT125211132.3,bus2=BMT125211139.3,Phases=1,Linecode=CAB202_3_1,Length=0.006003000,faultrate=0.1,pctperm=20,repair=3,units=km
new line.TR1004261 bus1=BMT125215199.1,bus2=BMT3665094B.1,Phases=1,Linecode=CAB202_3_1,Length=0.131280000,faultrate=0.1,pctperm=20,repair=3,units=km
new line.TR1004268 bus1=BMT125211132.1.2.3,bus2=BMT3696069B.1.2.3,Phases=3,Linecode=CAB202_3_3,Length=0.127329000,faultrate=0.1,pctperm=20,repair=3,units=km
new line.TR1004275 bus1=BMT125215227.1,bus2=BMT3665430B.1,Phases=1,Linecode=CAB202_3_1,Length=0.076972000,faultrate=0.1,pctperm=20,repair=3,units=km
new line.TR1004282 bus1=BMT133122567.3,bus2=BMT3218263B.3,Phases=1,Linecode=CAB202_3_1,Length=0.108010000,faultrate=0.1,pctperm=20,repair=3,units=km
new line.TR1004289 bus1=BMT125215115.1,bus2=BMT3680410B.1,Phases=1,Linecode=CAB202_3_1,Length=0.107378000,faultrate=0.1,pctperm=20,repair=3,units=km
new line.TR1004296 bus1=BMT125211153.3,bus2=BMT3696230B.3,Phases=1,Linecode=CAB103_3_1,Length=0.003002000,faultrate=0.1,pctperm=20,repair=3,units=km
new line.TR1004303 bus1=BMT125211153.1.2.3,bus2=BMT3696300B.1.2.3,Phases=3,Linecode=CAB202_3_3,Length=0.157751000,faultrate=0.1,pctperm=20,repair=3,units=km
new line.TR1004310 bus1=BMT1752806B.1.2.3,bus2=BMT125211167.1.2.3,Phases=3,Linecode=CAB202_3_3,Length=0.105460000,faultrate=0.1,pctperm=20,repair=3,units=km
new line.TR1004317 bus1=BMT164953605.1.2.3,bus2=BMT125211314.1.2.3,Phases=3,Linecode=CAB202_3_3,Length=0.139661000,faultrate=0.1,pctperm=20,repair=3,units=km
new line.TR1004324 bus1=BMT131940365.1.2.3,bus2=BMT131940372.1.2.3,Phases=3,Linecode=CAB202_3_3,Length=0.059965000,faultrate=0.1,pctperm=20,repair=3,units=km
new line.TR1004331 bus1=BMT125211314.1.2.3,bus2=BMT3696846B.1.2.3,Phases=3,Linecode=CAB202_3_3,Length=0.151228000,faultrate=0.1,pctperm=20,repair=3,units=km
new line.TR1004338 bus1=BMT164953606.2,bus2=BMT164953607.2,Phases=1,Linecode=CAB103_3_1,Length=0.081155000,faultrate=0.1,pctperm=20,repair=3,units=km
new line.TR1004345 bus1=BMT164953606.1.2.3,bus2=BMT164953608.1.2.3,Phases=3,Linecode=CAB202_3_3,Length=0.125831000,faultrate=0.1,pctperm=20,repair=3,units=km
new line.TR1004352 bus1=BMT131940372.2,bus2=BMT3697504B.2,Phases=1,Linecode=CAB103_3_1,Length=0.073459000,faultrate=0.1,pctperm=20,repair=3,units=km
new line.TR1004359 bus1=BMT131940372.1.2.3,bus2=BMT3698134B.1.2.3,Phases=3,Linecode=CAB202_3_3,Length=0.044312000,faultrate=0.1,pctperm=20,repair=3,units=km
new line.TR1004366 bus1=BMT131940393.1,bus2=BMT3698785B.1,Phases=1,Linecode=CAB202_3_1,Length=0.111493000,faultrate=0.1,pctperm=20,repair=3,units=km
new line.TR1004373 bus1=BMT131940393.1.2.3,bus2=BMT3698820B.1.2.3,Phases=3,Linecode=CAB202_3_3,Length=0.162075000,faultrate=0.1,pctperm=20,repair=3,units=km
new line.TR1004380 bus1=BMT125213477.1.2.3,bus2=BMT131940414.1.2.3,Phases=3,Linecode=CAB202_3_3,Length=0.166897000,faultrate=0.1,pctperm=20,repair=3,units=km
new line.TR1004387 bus1=BMT132259726.1,bus2=BMT3698827B.1,Phases=1,Linecode=CAB202_3_1,Length=0.123405000,faultrate=0.1,pctperm=20,repair=3,units=km
new line.TR1004394 bus1=BMT131940421.1,bus2=BMT3698834B.1,Phases=1,Linecode=CAB202_3_1,Length=0.115427000,faultrate=0.1,pctperm=20,repair=3,units=km
new line.TR1004401 bus1=BMT131940421.1.2.3,bus2=BMT3698883B.1.2.3,Phases=3,Linecode=CAB202_3_3,Length=0.157061000,faultrate=0.1,pctperm=20,repair=3,units=km
new line.TR1004408 bus1=BMT131940435.2,bus2=BMT131940442.2,Phases=1,Linecode=CAB202_3_1,Length=0.113062000,faultrate=0.1,pctperm=20,repair=3,units=km
new line.TR1004415 bus1=BMT131940435.1.2.3,bus2=BMT3698932B.1.2.3,Phases=3,Linecode=CAB202_3_3,Length=0.149058000,faultrate=0.1,pctperm=20,repair=3,units=km
new line.TR1004422 bus1=BMT1752869B.1.2.3,bus2=BMT125213526.1.2.3,Phases=3,Linecode=CAB202_3_3,Length=0.358201000,faultrate=0.1,pctperm=20,repair=3,units=km
new line.TR1004429 bus1=BMT125213526.1,bus2=BMT131940449.1,Phases=1,Linecode=CAB202_3_1,Length=0.100224000,faultrate=0.1,pctperm=20,repair=3,units=km
new line.TR1004436 bus1=BMT125213526.1.2.3,bus2=BMT131940456.1.2.3,Phases=3,Linecode=CAB202_3_3,Length=0.406275000,faultrate=0.1,pctperm=20,repair=3,units=km
new line.TR1004443 bus1=BMT133167178.2,bus2=BMT4298426B.2,Phases=1,Linecode=CAB202_3_1,Length=0.172136000,faultrate=0.1,pctperm=20,repair=3,units=km
new line.TR1004450 bus1=BMT131940456.1,bus2=BMT131940463.1,Phases=1,Linecode=CAB202_3_1,Length=0.112915000,faultrate=0.1,pctperm=20,repair=3,units=km
new line.TR1004457 bus1=BMT131940456.1.2.3,bus2=BMT131940470.1.2.3,Phases=3,Linecode=CAB202_3_3,Length=0.084342000,faultrate=0.1,pctperm=20,repair=3,units=km
new line.TR1004464 bus1=BMT131940470.2,bus2=BMT131940477.2,Phases=1,Linecode=CAB102_3_1,Length=0.029710000,faultrate=0.1,pctperm=20,repair=3,units=km
new line.TR1004471 bus1=BMT131940470.1.2.3,bus2=BMT3699226B.1.2.3,Phases=3,Linecode=CAB202_3_3,Length=0.078421000,faultrate=0.1,pctperm=20,repair=3,units=km
new line.TR1004478 bus1=BMT131940484.3,bus2=BMT131940491.3,Phases=1,Linecode=CAB202_3_1,Length=0.078191000,faultrate=0.1,pctperm=20,repair=3,units=km
new line.TR1004485 bus1=BMT131940484.1.2.3,bus2=BMT3699268B.1.2.3,Phases=3,Linecode=CAB202_3_3,Length=0.139370000,faultrate=0.1,pctperm=20,repair=3,units=km
new line.TR1004492 bus1=BMT131899149.3,bus2=BMT131899156.3,Phases=1,Linecode=CAB103_3_1,Length=0.075501000,faultrate=0.1,pctperm=20,repair=3,units=km