! manter este comentario para compatibilidade do C#
new circuit.alimSFIQ410 bus1=BMT125208640.1.2.3,basekv=13.800000000,pu=1.040000000

