new line.RML10086332 bus1=BBT4126408.1.0,bus2=RML1060086332.1.0,Phases=1,Linecode=CABBTG01_4_1,Length=0.012000000,Units=km
new line.RML10088248 bus1=BBT148146134.1.2.0,bus2=RML1060088248.1.2.0,Phases=2,Linecode=CABBTG05_4_2,Length=0.021000000,Units=km
new line.RML10088893 bus1=BBT4532639.1.2.0,bus2=RML1060088893.1.2.0,Phases=2,Linecode=CABBTG05_4_2,Length=0.017000000,Units=km
new line.RML10148168 bus1=BBT2434480.1.2.0,bus2=RML1060148168.1.2.0,Phases=2,Linecode=CABBTG05_4_2,Length=0.017000000,Units=km
new line.RML10148325 bus1=BBT4522944.1.0,bus2=RML1060148325.1.0,Phases=1,Linecode=CABBTG02_4_1,Length=0.017000000,Units=km
new line.RML1015041 bus1=BBT737505.1.2.0,bus2=RML1051015041.1.2.0,Phases=2,Linecode=CABBTG05_4_2,Length=0.017000000,Units=km
new line.RML10151047 bus1=BBT149757180.3.0,bus2=RML1060151047.3.0,Phases=1,Linecode=CABBTG02_4_1,Length=0.017000000,Units=km
new line.RML10151056 bus1=BBT149757146.1.0,bus2=RML1060151056.1.0,Phases=1,Linecode=CABBTG02_4_1,Length=0.017000000,Units=km
new line.RML10151061 bus1=BBT149757146.2.0,bus2=RML1060151061.2.0,Phases=1,Linecode=CABBTG02_4_1,Length=0.017000000,Units=km
new line.RML10151078 bus1=BBT149757318.3.0,bus2=RML1060151078.3.0,Phases=1,Linecode=CABBTG02_4_1,Length=0.017000000,Units=km
new line.RML10151083 bus1=BBT149757359.1.0,bus2=RML1060151083.1.0,Phases=1,Linecode=CABBTG02_4_1,Length=0.017000000,Units=km
new line.RML10151088 bus1=BBT149757359.2.0,bus2=RML1060151088.2.0,Phases=1,Linecode=CABBTG02_4_1,Length=0.017000000,Units=km
new line.RML10151108 bus1=BBT149753187.1.2.0,bus2=RML1060151108.1.2.0,Phases=2,Linecode=CABBTG05_4_2,Length=0.017000000,Units=km
new line.RML10151114 bus1=BBT149753187.1.3.0,bus2=RML1060151114.1.3.0,Phases=2,Linecode=CABBTG05_4_2,Length=0.017000000,Units=km
new line.RML10151122 bus1=BBT149753187.2.0,bus2=RML1060151122.2.0,Phases=1,Linecode=CABBTG02_4_1,Length=0.017000000,Units=km
new line.RML10151128 bus1=BBT149753187.1.0,bus2=RML1060151128.1.0,Phases=1,Linecode=CABBTG02_4_1,Length=0.017000000,Units=km
new line.RML10151141 bus1=BBT149752433.3.0,bus2=RML1060151141.3.0,Phases=1,Linecode=CABBTG02_4_1,Length=0.017000000,Units=km
new line.RML10151146 bus1=BBT149752433.2.0,bus2=RML1060151146.2.0,Phases=1,Linecode=CABBTG02_4_1,Length=0.017000000,Units=km
new line.RML10151153 bus1=BBT149752433.1.0,bus2=RML1060151153.1.0,Phases=1,Linecode=CABBTG02_4_1,Length=0.017000000,Units=km
new line.RML10151161 bus1=BBT149752433.3.0,bus2=RML1060151161.3.0,Phases=1,Linecode=CABBTG02_4_1,Length=0.017000000,Units=km
new line.RML10151168 bus1=BBT149752433.2.0,bus2=RML1060151168.2.0,Phases=1,Linecode=CABBTG02_4_1,Length=0.017000000,Units=km
new line.RML10151173 bus1=BBT149752433.3.0,bus2=RML1060151173.3.0,Phases=1,Linecode=CABBTG02_4_1,Length=0.017000000,Units=km
new line.RML10151176 bus1=BBT149752433.1.0,bus2=RML1060151176.1.0,Phases=1,Linecode=CABBTG02_4_1,Length=0.017000000,Units=km
new line.RML10151181 bus1=BBT149752433.1.0,bus2=RML1060151181.1.0,Phases=1,Linecode=CABBTG02_4_1,Length=0.017000000,Units=km
new line.RML10151185 bus1=BBT149752433.2.0,bus2=RML1060151185.2.0,Phases=1,Linecode=CABBTG02_4_1,Length=0.017000000,Units=km
new line.RML10151189 bus1=BBT149753126.1.0,bus2=RML1060151189.1.0,Phases=1,Linecode=CABBTG02_4_1,Length=0.017000000,Units=km
new line.RML10151192 bus1=BBT149753126.3.0,bus2=RML1060151192.3.0,Phases=1,Linecode=CABBTG02_4_1,Length=0.017000000,Units=km
new line.RML10151194 bus1=BBT149753126.2.0,bus2=RML1060151194.2.0,Phases=1,Linecode=CABBTG02_4_1,Length=0.017000000,Units=km
new line.RML10151195 bus1=BBT149753126.3.0,bus2=RML1060151195.3.0,Phases=1,Linecode=CABBTG02_4_1,Length=0.017000000,Units=km
new line.RML10151201 bus1=BBT149753126.1.0,bus2=RML1060151201.1.0,Phases=1,Linecode=CABBTG02_4_1,Length=0.017000000,Units=km
new line.RML10151205 bus1=BBT149756833.3.0,bus2=RML1060151205.3.0,Phases=1,Linecode=CABBTG02_4_1,Length=0.017000000,Units=km
new line.RML10151212 bus1=BBT149756631.1.0,bus2=RML1060151212.1.0,Phases=1,Linecode=CABBTG02_4_1,Length=0.017000000,Units=km
new line.RML10151268 bus1=BBT149756631.2.0,bus2=RML1060151268.2.0,Phases=1,Linecode=CABBTG02_4_1,Length=0.017000000,Units=km
new line.RML10151278 bus1=BBT149756631.3.0,bus2=RML1060151278.3.0,Phases=1,Linecode=CABBTG02_4_1,Length=0.017000000,Units=km
new line.RML10151290 bus1=BBT149755354.1.0,bus2=RML1060151290.1.0,Phases=1,Linecode=CABBTG02_4_1,Length=0.017000000,Units=km
new line.RML10151293 bus1=BBT149755354.2.0,bus2=RML1060151293.2.0,Phases=1,Linecode=CABBTG02_4_1,Length=0.017000000,Units=km
new line.RML10151300 bus1=BBT149756702.3.0,bus2=RML1060151300.3.0,Phases=1,Linecode=CABBTG02_4_1,Length=0.017000000,Units=km
new line.RML10151306 bus1=BBT149756702.2.0,bus2=RML1060151306.2.0,Phases=1,Linecode=CABBTG02_4_1,Length=0.017000000,Units=km
new line.RML10151309 bus1=BBT149756702.1.0,bus2=RML1060151309.1.0,Phases=1,Linecode=CABBTG02_4_1,Length=0.017000000,Units=km
new line.RML10151312 bus1=BBT149756702.1.0,bus2=RML1060151312.1.0,Phases=1,Linecode=CABBTG02_4_1,Length=0.017000000,Units=km
new line.RML10151350 bus1=BBT149756220.1.0,bus2=RML1060151350.1.0,Phases=1,Linecode=CABBTG02_4_1,Length=0.017000000,Units=km
new line.RML10151363 bus1=BBT149756220.2.0,bus2=RML1060151363.2.0,Phases=1,Linecode=CABBTG02_4_1,Length=0.017000000,Units=km
new line.RML10151372 bus1=BBT149756220.3.0,bus2=RML1060151372.3.0,Phases=1,Linecode=CABBTG02_4_1,Length=0.017000000,Units=km
new line.RML10151383 bus1=BBT149756209.1.0,bus2=RML1060151383.1.0,Phases=1,Linecode=CABBTG02_4_1,Length=0.017000000,Units=km
new line.RML10151392 bus1=BBT149756209.2.0,bus2=RML1060151392.2.0,Phases=1,Linecode=CABBTG02_4_1,Length=0.017000000,Units=km
new line.RML10151396 bus1=BBT149756209.3.0,bus2=RML1060151396.3.0,Phases=1,Linecode=CABBTG02_4_1,Length=0.017000000,Units=km
new line.RML10151417 bus1=BBT149756203.2.0,bus2=RML1060151417.2.0,Phases=1,Linecode=CABBTG02_4_1,Length=0.017000000,Units=km
new line.RML10151431 bus1=BBT149756203.1.0,bus2=RML1060151431.1.0,Phases=1,Linecode=CABBTG02_4_1,Length=0.017000000,Units=km
new line.RML10151440 bus1=BBT149756203.3.0,bus2=RML1060151440.3.0,Phases=1,Linecode=CABBTG02_4_1,Length=0.017000000,Units=km
new line.RML10151448 bus1=BBT149756203.1.0,bus2=RML1060151448.1.0,Phases=1,Linecode=CABBTG02_4_1,Length=0.017000000,Units=km
new line.RML10151458 bus1=BBT149755393.1.0,bus2=RML1060151458.1.0,Phases=1,Linecode=CABBTG02_4_1,Length=0.017000000,Units=km
new line.RML10151469 bus1=BBT149755393.2.0,bus2=RML1060151469.2.0,Phases=1,Linecode=CABBTG02_4_1,Length=0.017000000,Units=km
new line.RML10151476 bus1=BBT149755393.3.0,bus2=RML1060151476.3.0,Phases=1,Linecode=CABBTG02_4_1,Length=0.017000000,Units=km
new line.RML10151485 bus1=BBT149756171.3.0,bus2=RML1060151485.3.0,Phases=1,Linecode=CABBTG02_4_1,Length=0.017000000,Units=km
new line.RML10151521 bus1=BBT149756496.2.0,bus2=RML1060151521.2.0,Phases=1,Linecode=CABBTG02_4_1,Length=0.017000000,Units=km
new line.RML10151524 bus1=BBT149756496.1.0,bus2=RML1060151524.1.0,Phases=1,Linecode=CABBTG02_4_1,Length=0.017000000,Units=km
new line.RML10151528 bus1=BBT149756496.3.0,bus2=RML1060151528.3.0,Phases=1,Linecode=CABBTG02_4_1,Length=0.017000000,Units=km
new line.RML10151530 bus1=BBT149756496.2.0,bus2=RML1060151530.2.0,Phases=1,Linecode=CABBTG02_4_1,Length=0.017000000,Units=km
new line.RML10151533 bus1=BBT149756496.1.0,bus2=RML1060151533.1.0,Phases=1,Linecode=CABBTG02_4_1,Length=0.017000000,Units=km
new line.RML10151544 bus1=BBT149756496.3.0,bus2=RML1060151544.3.0,Phases=1,Linecode=CABBTG02_4_1,Length=0.017000000,Units=km
new line.RML10151547 bus1=BBT149756496.2.0,bus2=RML1060151547.2.0,Phases=1,Linecode=CABBTG02_4_1,Length=0.017000000,Units=km
new line.RML10151550 bus1=BBT149756496.1.0,bus2=RML1060151550.1.0,Phases=1,Linecode=CABBTG02_4_1,Length=0.017000000,Units=km
new line.RML10151554 bus1=BBT149756496.1.0,bus2=RML1060151554.1.0,Phases=1,Linecode=CABBTG02_4_1,Length=0.017000000,Units=km
new line.RML10151556 bus1=BBT149756496.3.0,bus2=RML1060151556.3.0,Phases=1,Linecode=CABBTG02_4_1,Length=0.017000000,Units=km
new line.RML10151560 bus1=BBT149756496.2.0,bus2=RML1060151560.2.0,Phases=1,Linecode=CABBTG02_4_1,Length=0.017000000,Units=km
new line.RML10151562 bus1=BBT149756496.2.0,bus2=RML1060151562.2.0,Phases=1,Linecode=CABBTG02_4_1,Length=0.017000000,Units=km
new line.RML10151590 bus1=BBT149756522.1.0,bus2=RML1060151590.1.0,Phases=1,Linecode=CABBTG02_4_1,Length=0.017000000,Units=km
new line.RML10151595 bus1=BBT149756522.3.0,bus2=RML1060151595.3.0,Phases=1,Linecode=CABBTG02_4_1,Length=0.017000000,Units=km
new line.RML10151599 bus1=BBT149756522.2.0,bus2=RML1060151599.2.0,Phases=1,Linecode=CABBTG02_4_1,Length=0.017000000,Units=km
new line.RML10151602 bus1=BBT149756522.2.0,bus2=RML1060151602.2.0,Phases=1,Linecode=CABBTG02_4_1,Length=0.017000000,Units=km
new line.RML10151605 bus1=BBT149756522.3.0,bus2=RML1060151605.3.0,Phases=1,Linecode=CABBTG02_4_1,Length=0.017000000,Units=km
new line.RML10151606 bus1=BBT149756522.1.0,bus2=RML1060151606.1.0,Phases=1,Linecode=CABBTG02_4_1,Length=0.017000000,Units=km
new line.RML10151612 bus1=BBT149756522.3.0,bus2=RML1060151612.3.0,Phases=1,Linecode=CABBTG02_4_1,Length=0.017000000,Units=km
new line.RML10151614 bus1=BBT149756522.2.0,bus2=RML1060151614.2.0,Phases=1,Linecode=CABBTG02_4_1,Length=0.017000000,Units=km
new line.RML10151765 bus1=BBT149756523.2.0,bus2=RML1060151765.2.0,Phases=1,Linecode=CABBTG02_4_1,Length=0.017000000,Units=km
new line.RML10151766 bus1=BBT149756523.1.0,bus2=RML1060151766.1.0,Phases=1,Linecode=CABBTG02_4_1,Length=0.017000000,Units=km
new line.RML10151768 bus1=BBT149758053.3.0,bus2=RML1060151768.3.0,Phases=1,Linecode=CABBTG02_4_1,Length=0.017000000,Units=km
new line.RML10151770 bus1=BBT149756523.2.0,bus2=RML1060151770.2.0,Phases=1,Linecode=CABBTG02_4_1,Length=0.017000000,Units=km
new line.RML10151772 bus1=BBT149758053.1.0,bus2=RML1060151772.1.0,Phases=1,Linecode=CABBTG02_4_1,Length=0.017000000,Units=km
new line.RML10151774 bus1=BBT149758053.3.0,bus2=RML1060151774.3.0,Phases=1,Linecode=CABBTG02_4_1,Length=0.017000000,Units=km
new line.RML10151776 bus1=BBT149758046.2.0,bus2=RML1060151776.2.0,Phases=1,Linecode=CABBTG02_4_1,Length=0.017000000,Units=km
new line.RML10151783 bus1=BBT149758053.2.0,bus2=RML1060151783.2.0,Phases=1,Linecode=CABBTG02_4_1,Length=0.017000000,Units=km
new line.RML10151786 bus1=BBT149758046.1.0,bus2=RML1060151786.1.0,Phases=1,Linecode=CABBTG02_4_1,Length=0.017000000,Units=km
new line.RML10151787 bus1=BBT149758046.3.0,bus2=RML1060151787.3.0,Phases=1,Linecode=CABBTG02_4_1,Length=0.017000000,Units=km
new line.RML10151788 bus1=BBT149758046.1.0,bus2=RML1060151788.1.0,Phases=1,Linecode=CABBTG02_4_1,Length=0.017000000,Units=km
new line.RML10151797 bus1=BBT149758046.1.3.0,bus2=RML1060151797.1.3.0,Phases=2,Linecode=CABBTG05_4_2,Length=0.017000000,Units=km
new line.RML10151801 bus1=BBT149758046.3.0,bus2=RML1060151801.3.0,Phases=1,Linecode=CABBTG02_4_1,Length=0.017000000,Units=km
new line.RML10151804 bus1=BBT149758046.2.0,bus2=RML1060151804.2.0,Phases=1,Linecode=CABBTG02_4_1,Length=0.017000000,Units=km
new line.RML10151816 bus1=BBT149755825.1.0,bus2=RML1060151816.1.0,Phases=1,Linecode=CABBTG02_4_1,Length=0.017000000,Units=km
new line.RML10151826 bus1=BBT149756904.2.0,bus2=RML1060151826.2.0,Phases=1,Linecode=CABBTG02_4_1,Length=0.017000000,Units=km
new line.RML10151827 bus1=BBT149756904.1.0,bus2=RML1060151827.1.0,Phases=1,Linecode=CABBTG02_4_1,Length=0.017000000,Units=km
new line.RML10151832 bus1=BBT149756904.3.0,bus2=RML1060151832.3.0,Phases=1,Linecode=CABBTG02_4_1,Length=0.017000000,Units=km
new line.RML10151835 bus1=BBT149756904.1.0,bus2=RML1060151835.1.0,Phases=1,Linecode=CABBTG02_4_1,Length=0.017000000,Units=km
new line.RML10151838 bus1=BBT149756904.2.0,bus2=RML1060151838.2.0,Phases=1,Linecode=CABBTG02_4_1,Length=0.017000000,Units=km
new line.RML10151880 bus1=BBT149756904.3.0,bus2=RML1060151880.3.0,Phases=1,Linecode=CABBTG02_4_1,Length=0.017000000,Units=km
new line.RML10151885 bus1=BBT149756904.1.0,bus2=RML1060151885.1.0,Phases=1,Linecode=CABBTG02_4_1,Length=0.017000000,Units=km
new line.RML10151887 bus1=BBT149756904.2.0,bus2=RML1060151887.2.0,Phases=1,Linecode=CABBTG02_4_1,Length=0.017000000,Units=km
new line.RML10151893 bus1=BBT149756950.2.0,bus2=RML1060151893.2.0,Phases=1,Linecode=CABBTG02_4_1,Length=0.017000000,Units=km
new line.RML10151896 bus1=BBT149756950.1.0,bus2=RML1060151896.1.0,Phases=1,Linecode=CABBTG02_4_1,Length=0.017000000,Units=km
new line.RML10151898 bus1=BBT149756950.3.0,bus2=RML1060151898.3.0,Phases=1,Linecode=CABBTG02_4_1,Length=0.017000000,Units=km
new line.RML10151901 bus1=BBT149756950.2.0,bus2=RML1060151901.2.0,Phases=1,Linecode=CABBTG02_4_1,Length=0.017000000,Units=km
new line.RML10151907 bus1=BBT149756950.1.0,bus2=RML1060151907.1.0,Phases=1,Linecode=CABBTG02_4_1,Length=0.017000000,Units=km
new line.RML10151910 bus1=BBT149756950.1.0,bus2=RML1060151910.1.0,Phases=1,Linecode=CABBTG02_4_1,Length=0.017000000,Units=km
new line.RML10151913 bus1=BBT149756950.3.0,bus2=RML1060151913.3.0,Phases=1,Linecode=CABBTG02_4_1,Length=0.017000000,Units=km
new line.RML10151918 bus1=BBT149757946.2.0,bus2=RML1060151918.2.0,Phases=1,Linecode=CABBTG02_4_1,Length=0.017000000,Units=km
new line.RML10151919 bus1=BBT149757946.3.0,bus2=RML1060151919.3.0,Phases=1,Linecode=CABBTG02_4_1,Length=0.017000000,Units=km
new line.RML10151921 bus1=BBT149757946.2.0,bus2=RML1060151921.2.0,Phases=1,Linecode=CABBTG02_4_1,Length=0.017000000,Units=km
new line.RML10151923 bus1=BBT149757946.1.0,bus2=RML1060151923.1.0,Phases=1,Linecode=CABBTG02_4_1,Length=0.017000000,Units=km
new line.RML10151925 bus1=BBT149757946.1.0,bus2=RML1060151925.1.0,Phases=1,Linecode=CABBTG02_4_1,Length=0.017000000,Units=km
new line.RML10151928 bus1=BBT149757923.1.0,bus2=RML1060151928.1.0,Phases=1,Linecode=CABBTG02_4_1,Length=0.017000000,Units=km
new line.RML10151930 bus1=BBT149757923.2.0,bus2=RML1060151930.2.0,Phases=1,Linecode=CABBTG02_4_1,Length=0.017000000,Units=km
new line.RML10151932 bus1=BBT149757923.3.0,bus2=RML1060151932.3.0,Phases=1,Linecode=CABBTG02_4_1,Length=0.017000000,Units=km
new line.RML10151938 bus1=BBT149757923.1.0,bus2=RML1060151938.1.0,Phases=1,Linecode=CABBTG02_4_1,Length=0.017000000,Units=km
new line.RML10151943 bus1=BBT149757923.3.0,bus2=RML1060151943.3.0,Phases=1,Linecode=CABBTG02_4_1,Length=0.017000000,Units=km
new line.RML10151945 bus1=BBT149757923.2.0,bus2=RML1060151945.2.0,Phases=1,Linecode=CABBTG02_4_1,Length=0.017000000,Units=km
new line.RML10151951 bus1=BBT149757905.2.0,bus2=RML1060151951.2.0,Phases=1,Linecode=CABBTG02_4_1,Length=0.017000000,Units=km
new line.RML10151957 bus1=BBT149757905.1.0,bus2=RML1060151957.1.0,Phases=1,Linecode=CABBTG02_4_1,Length=0.017000000,Units=km
new line.RML10151958 bus1=BBT149757905.1.0,bus2=RML1060151958.1.0,Phases=1,Linecode=CABBTG02_4_1,Length=0.017000000,Units=km
new line.RML10151960 bus1=BBT149757905.3.0,bus2=RML1060151960.3.0,Phases=1,Linecode=CABBTG02_4_1,Length=0.017000000,Units=km
new line.RML10151965 bus1=BBT149757905.2.0,bus2=RML1060151965.2.0,Phases=1,Linecode=CABBTG02_4_1,Length=0.017000000,Units=km
new line.RML10151970 bus1=BBT149757905.3.0,bus2=RML1060151970.3.0,Phases=1,Linecode=CABBTG02_4_1,Length=0.017000000,Units=km
new line.RML10151973 bus1=BBT149757905.3.0,bus2=RML1060151973.3.0,Phases=1,Linecode=CABBTG02_4_1,Length=0.017000000,Units=km
new line.RML10151984 bus1=BBT149757433.3.0,bus2=RML1060151984.3.0,Phases=1,Linecode=CABBTG02_4_1,Length=0.017000000,Units=km
new line.RML10151989 bus1=BBT149757433.1.0,bus2=RML1060151989.1.0,Phases=1,Linecode=CABBTG02_4_1,Length=0.017000000,Units=km
new line.RML10151990 bus1=BBT149757433.2.0,bus2=RML1060151990.2.0,Phases=1,Linecode=CABBTG02_4_1,Length=0.017000000,Units=km
new line.RML10151994 bus1=BBT149757433.2.0,bus2=RML1060151994.2.0,Phases=1,Linecode=CABBTG02_4_1,Length=0.017000000,Units=km
new line.RML10151997 bus1=BBT149757433.1.0,bus2=RML1060151997.1.0,Phases=1,Linecode=CABBTG02_4_1,Length=0.017000000,Units=km
new line.RML10151999 bus1=BBT149757433.1.0,bus2=RML1060151999.1.0,Phases=1,Linecode=CABBTG02_4_1,Length=0.017000000,Units=km
new line.RML10152002 bus1=BBT149757433.3.0,bus2=RML1060152002.3.0,Phases=1,Linecode=CABBTG02_4_1,Length=0.017000000,Units=km
new line.RML10152008 bus1=BBT149757487.3.0,bus2=RML1060152008.3.0,Phases=1,Linecode=CABBTG02_4_1,Length=0.017000000,Units=km
new line.RML10152010 bus1=BBT149757487.2.0,bus2=RML1060152010.2.0,Phases=1,Linecode=CABBTG02_4_1,Length=0.017000000,Units=km
new line.RML10152012 bus1=BBT149757487.1.0,bus2=RML1060152012.1.0,Phases=1,Linecode=CABBTG02_4_1,Length=0.017000000,Units=km
new line.RML10152015 bus1=BBT149757487.3.0,bus2=RML1060152015.3.0,Phases=1,Linecode=CABBTG02_4_1,Length=0.017000000,Units=km
new line.RML10152018 bus1=BBT149757487.2.0,bus2=RML1060152018.2.0,Phases=1,Linecode=CABBTG02_4_1,Length=0.017000000,Units=km
new line.RML10152022 bus1=BBT149757883.1.0,bus2=RML1060152022.1.0,Phases=1,Linecode=CABBTG02_4_1,Length=0.017000000,Units=km
new line.RML10152025 bus1=BBT149757883.3.0,bus2=RML1060152025.3.0,Phases=1,Linecode=CABBTG02_4_1,Length=0.017000000,Units=km
new line.RML10152029 bus1=BBT149757879.3.0,bus2=RML1060152029.3.0,Phases=1,Linecode=CABBTG02_4_1,Length=0.017000000,Units=km
new line.RML10152033 bus1=BBT149757879.1.0,bus2=RML1060152033.1.0,Phases=1,Linecode=CABBTG02_4_1,Length=0.017000000,Units=km
new line.RML10152036 bus1=BBT149757879.2.0,bus2=RML1060152036.2.0,Phases=1,Linecode=CABBTG02_4_1,Length=0.017000000,Units=km
new line.RML10152041 bus1=BBT149757879.2.0,bus2=RML1060152041.2.0,Phases=1,Linecode=CABBTG02_4_1,Length=0.017000000,Units=km
new line.RML10152042 bus1=BBT149757879.1.0,bus2=RML1060152042.1.0,Phases=1,Linecode=CABBTG02_4_1,Length=0.017000000,Units=km
new line.RML10152044 bus1=BBT149757879.3.0,bus2=RML1060152044.3.0,Phases=1,Linecode=CABBTG02_4_1,Length=0.017000000,Units=km
new line.RML10152050 bus1=BBT149757855.3.0,bus2=RML1060152050.3.0,Phases=1,Linecode=CABBTG02_4_1,Length=0.017000000,Units=km
new line.RML10152052 bus1=BBT149757855.1.0,bus2=RML1060152052.1.0,Phases=1,Linecode=CABBTG02_4_1,Length=0.017000000,Units=km
new line.RML10152054 bus1=BBT149757855.2.0,bus2=RML1060152054.2.0,Phases=1,Linecode=CABBTG02_4_1,Length=0.017000000,Units=km
new line.RML10152056 bus1=BBT149757855.3.0,bus2=RML1060152056.3.0,Phases=1,Linecode=CABBTG02_4_1,Length=0.017000000,Units=km
new line.RML10152059 bus1=BBT149757855.1.0,bus2=RML1060152059.1.0,Phases=1,Linecode=CABBTG02_4_1,Length=0.017000000,Units=km
new line.RML10152062 bus1=BBT149757855.2.0,bus2=RML1060152062.2.0,Phases=1,Linecode=CABBTG02_4_1,Length=0.017000000,Units=km
new line.RML10152064 bus1=BBT149757855.2.0,bus2=RML1060152064.2.0,Phases=1,Linecode=CABBTG02_4_1,Length=0.017000000,Units=km
new line.RML10152071 bus1=BBT149757855.3.0,bus2=RML1060152071.3.0,Phases=1,Linecode=CABBTG02_4_1,Length=0.017000000,Units=km
new line.RML10152076 bus1=BBT149757855.1.0,bus2=RML1060152076.1.0,Phases=1,Linecode=CABBTG02_4_1,Length=0.017000000,Units=km
new line.RML10152085 bus1=BBT149753543.1.0,bus2=RML1060152085.1.0,Phases=1,Linecode=CABBTG02_4_1,Length=0.017000000,Units=km
new line.RML10152090 bus1=BBT149753543.2.0,bus2=RML1060152090.2.0,Phases=1,Linecode=CABBTG02_4_1,Length=0.017000000,Units=km
new line.RML10152092 bus1=BBT149753543.2.0,bus2=RML1060152092.2.0,Phases=1,Linecode=CABBTG02_4_1,Length=0.017000000,Units=km
new line.RML10152096 bus1=BBT149753543.3.0,bus2=RML1060152096.3.0,Phases=1,Linecode=CABBTG02_4_1,Length=0.017000000,Units=km
new line.RML10152103 bus1=BBT149753543.1.0,bus2=RML1060152103.1.0,Phases=1,Linecode=CABBTG02_4_1,Length=0.017000000,Units=km
new line.RML10152107 bus1=BBT149753543.3.0,bus2=RML1060152107.3.0,Phases=1,Linecode=CABBTG02_4_1,Length=0.017000000,Units=km
new line.RML10152124 bus1=BBT4963944.1.2.0,bus2=RML1060152124.1.2.0,Phases=2,Linecode=CABBTG05_4_2,Length=0.017000000,Units=km
new line.RML10152128 bus1=BBT5172621.1.2.0,bus2=RML1060152128.1.2.0,Phases=2,Linecode=CABBTG05_4_2,Length=0.017000000,Units=km
new line.RML10152132 bus1=BBT149753543.2.0,bus2=RML1060152132.2.0,Phases=1,Linecode=CABBTG02_4_1,Length=0.017000000,Units=km
new line.RML10152136 bus1=BBT149753543.1.0,bus2=RML1060152136.1.0,Phases=1,Linecode=CABBTG02_4_1,Length=0.017000000,Units=km
new line.RML10152145 bus1=BBT149753543.2.0,bus2=RML1060152145.2.0,Phases=1,Linecode=CABBTG02_4_1,Length=0.017000000,Units=km
new line.RML10152164 bus1=BBT149753559.3.0,bus2=RML1060152164.3.0,Phases=1,Linecode=CABBTG02_4_1,Length=0.017000000,Units=km
new line.RML10152168 bus1=BBT149753559.1.0,bus2=RML1060152168.1.0,Phases=1,Linecode=CABBTG02_4_1,Length=0.017000000,Units=km
new line.RML10152171 bus1=BBT149753559.1.0,bus2=RML1060152171.1.0,Phases=1,Linecode=CABBTG02_4_1,Length=0.017000000,Units=km
new line.RML10152174 bus1=BBT149753559.2.0,bus2=RML1060152174.2.0,Phases=1,Linecode=CABBTG02_4_1,Length=0.017000000,Units=km
new line.RML10152178 bus1=BBT149753559.3.0,bus2=RML1060152178.3.0,Phases=1,Linecode=CABBTG02_4_1,Length=0.017000000,Units=km
new line.RML10152184 bus1=BBT149753559.2.0,bus2=RML1060152184.2.0,Phases=1,Linecode=CABBTG02_4_1,Length=0.017000000,Units=km
new line.RML10152189 bus1=BBT149753559.1.0,bus2=RML1060152189.1.0,Phases=1,Linecode=CABBTG02_4_1,Length=0.017000000,Units=km
new line.RML10152192 bus1=BBT149753559.2.0,bus2=RML1060152192.2.0,Phases=1,Linecode=CABBTG02_4_1,Length=0.017000000,Units=km
new line.RML10152197 bus1=BBT149753587.2.0,bus2=RML1060152197.2.0,Phases=1,Linecode=CABBTG02_4_1,Length=0.017000000,Units=km
new line.RML10152200 bus1=BBT149753587.3.0,bus2=RML1060152200.3.0,Phases=1,Linecode=CABBTG02_4_1,Length=0.017000000,Units=km
new line.RML10152205 bus1=BBT149753587.1.0,bus2=RML1060152205.1.0,Phases=1,Linecode=CABBTG02_4_1,Length=0.017000000,Units=km
new line.RML10152207 bus1=BBT149753587.2.0,bus2=RML1060152207.2.0,Phases=1,Linecode=CABBTG02_4_1,Length=0.017000000,Units=km
new line.RML10152213 bus1=BBT149753587.3.0,bus2=RML1060152213.3.0,Phases=1,Linecode=CABBTG02_4_1,Length=0.017000000,Units=km
new line.RML10152215 bus1=BBT149757218.1.0,bus2=RML1060152215.1.0,Phases=1,Linecode=CABBTG02_4_1,Length=0.017000000,Units=km
new line.RML10152218 bus1=BBT149757218.2.0,bus2=RML1060152218.2.0,Phases=1,Linecode=CABBTG02_4_1,Length=0.017000000,Units=km
new line.RML10152224 bus1=BBT149757218.3.0,bus2=RML1060152224.3.0,Phases=1,Linecode=CABBTG02_4_1,Length=0.017000000,Units=km
new line.RML10152277 bus1=BBT149756085.3.0,bus2=RML1060152277.3.0,Phases=1,Linecode=CABBTG02_4_1,Length=0.017000000,Units=km
new line.RML10152279 bus1=BBT149756085.1.0,bus2=RML1060152279.1.0,Phases=1,Linecode=CABBTG02_4_1,Length=0.017000000,Units=km
new line.RML10152300 bus1=BBT149756072.1.0,bus2=RML1060152300.1.0,Phases=1,Linecode=CABBTG02_4_1,Length=0.017000000,Units=km
new line.RML10152415 bus1=BBT149756220.1.0,bus2=RML1060152415.1.0,Phases=1,Linecode=CABBTG02_4_1,Length=0.017000000,Units=km
new line.RML10152422 bus1=BBT149756072.2.0,bus2=RML1060152422.2.0,Phases=1,Linecode=CABBTG02_4_1,Length=0.017000000,Units=km
new line.RML10152424 bus1=BBT149756072.3.0,bus2=RML1060152424.3.0,Phases=1,Linecode=CABBTG02_4_1,Length=0.017000000,Units=km
new line.RML10152431 bus1=BBT149755471.3.0,bus2=RML1060152431.3.0,Phases=1,Linecode=CABBTG02_4_1,Length=0.017000000,Units=km
new line.RML10152434 bus1=BBT149755471.2.0,bus2=RML1060152434.2.0,Phases=1,Linecode=CABBTG02_4_1,Length=0.017000000,Units=km
new line.RML10152439 bus1=BBT149755471.1.0,bus2=RML1060152439.1.0,Phases=1,Linecode=CABBTG02_4_1,Length=0.017000000,Units=km
new line.RML10152449 bus1=BBT149755988.1.0,bus2=RML1060152449.1.0,Phases=1,Linecode=CABBTG02_4_1,Length=0.017000000,Units=km
new line.RML10152453 bus1=BBT149755988.3.0,bus2=RML1060152453.3.0,Phases=1,Linecode=CABBTG02_4_1,Length=0.017000000,Units=km
new line.RML10152454 bus1=BBT149755988.2.0,bus2=RML1060152454.2.0,Phases=1,Linecode=CABBTG02_4_1,Length=0.017000000,Units=km
new line.RML10152464 bus1=BBT149755992.2.0,bus2=RML1060152464.2.0,Phases=1,Linecode=CABBTG02_4_1,Length=0.017000000,Units=km
new line.RML10152481 bus1=BBT149755992.3.0,bus2=RML1060152481.3.0,Phases=1,Linecode=CABBTG02_4_1,Length=0.017000000,Units=km
new line.RML10152532 bus1=BBT149755992.1.0,bus2=RML1060152532.1.0,Phases=1,Linecode=CABBTG02_4_1,Length=0.017000000,Units=km
new line.RML10152535 bus1=BBT149755992.2.0,bus2=RML1060152535.2.0,Phases=1,Linecode=CABBTG02_4_1,Length=0.017000000,Units=km
new line.RML10152542 bus1=BBT149755992.3.0,bus2=RML1060152542.3.0,Phases=1,Linecode=CABBTG02_4_1,Length=0.017000000,Units=km
new line.RML10152544 bus1=BBT149755992.1.0,bus2=RML1060152544.1.0,Phases=1,Linecode=CABBTG02_4_1,Length=0.017000000,Units=km
new line.RML10152549 bus1=BBT149755992.2.0,bus2=RML1060152549.2.0,Phases=1,Linecode=CABBTG02_4_1,Length=0.017000000,Units=km
new line.RML10152558 bus1=BBT149755992.2.0,bus2=RML1060152558.2.0,Phases=1,Linecode=CABBTG02_4_1,Length=0.017000000,Units=km
new line.RML10152562 bus1=BBT149755992.1.0,bus2=RML1060152562.1.0,Phases=1,Linecode=CABBTG02_4_1,Length=0.017000000,Units=km
new line.RML10152566 bus1=BBT149755992.3.0,bus2=RML1060152566.3.0,Phases=1,Linecode=CABBTG02_4_1,Length=0.017000000,Units=km
new line.RML10152569 bus1=BBT149755992.3.0,bus2=RML1060152569.3.0,Phases=1,Linecode=CABBTG02_4_1,Length=0.017000000,Units=km
new line.RML10152572 bus1=BBT149756011.3.0,bus2=RML1060152572.3.0,Phases=1,Linecode=CABBTG02_4_1,Length=0.017000000,Units=km
new line.RML10152575 bus1=BBT149756011.1.0,bus2=RML1060152575.1.0,Phases=1,Linecode=CABBTG02_4_1,Length=0.017000000,Units=km
new line.RML10152582 bus1=BBT149756011.1.0,bus2=RML1060152582.1.0,Phases=1,Linecode=CABBTG02_4_1,Length=0.017000000,Units=km
new line.RML10152587 bus1=BBT149756011.2.0,bus2=RML1060152587.2.0,Phases=1,Linecode=CABBTG02_4_1,Length=0.017000000,Units=km
new line.RML10152590 bus1=BBT149756011.3.0,bus2=RML1060152590.3.0,Phases=1,Linecode=CABBTG02_4_1,Length=0.017000000,Units=km
new line.RML10152592 bus1=BBT149756011.2.0,bus2=RML1060152592.2.0,Phases=1,Linecode=CABBTG02_4_1,Length=0.017000000,Units=km
new line.RML10152598 bus1=BBT149756011.1.0,bus2=RML1060152598.1.0,Phases=1,Linecode=CABBTG02_4_1,Length=0.017000000,Units=km
new line.RML10152599 bus1=BBT149756011.2.0,bus2=RML1060152599.2.0,Phases=1,Linecode=CABBTG02_4_1,Length=0.017000000,Units=km
new line.RML10152603 bus1=BBT149756015.2.0,bus2=RML1060152603.2.0,Phases=1,Linecode=CABBTG02_4_1,Length=0.017000000,Units=km
new line.RML10152609 bus1=BBT149756015.1.0,bus2=RML1060152609.1.0,Phases=1,Linecode=CABBTG02_4_1,Length=0.017000000,Units=km
new line.RML10152613 bus1=BBT149756037.3.0,bus2=RML1060152613.3.0,Phases=1,Linecode=CABBTG02_4_1,Length=0.017000000,Units=km
new line.RML10152615 bus1=BBT149756036.3.0,bus2=RML1060152615.3.0,Phases=1,Linecode=CABBTG02_4_1,Length=0.017000000,Units=km
new line.RML10152626 bus1=BBT149756036.1.0,bus2=RML1060152626.1.0,Phases=1,Linecode=CABBTG02_4_1,Length=0.017000000,Units=km
new line.RML10152628 bus1=BBT149756036.2.0,bus2=RML1060152628.2.0,Phases=1,Linecode=CABBTG02_4_1,Length=0.017000000,Units=km
new line.RML10152632 bus1=BBT149756036.1.0,bus2=RML1060152632.1.0,Phases=1,Linecode=CABBTG02_4_1,Length=0.017000000,Units=km
new line.RML10152653 bus1=BBT149755896.1.0,bus2=RML1060152653.1.0,Phases=1,Linecode=CABBTG02_4_1,Length=0.017000000,Units=km
new line.RML10152657 bus1=BBT149755896.2.0,bus2=RML1060152657.2.0,Phases=1,Linecode=CABBTG02_4_1,Length=0.017000000,Units=km
new line.RML10152659 bus1=BBT149755896.3.0,bus2=RML1060152659.3.0,Phases=1,Linecode=CABBTG02_4_1,Length=0.017000000,Units=km
new line.RML10152666 bus1=BBT149755896.2.0,bus2=RML1060152666.2.0,Phases=1,Linecode=CABBTG02_4_1,Length=0.017000000,Units=km
new line.RML10152669 bus1=BBT149755894.1.0,bus2=RML1060152669.1.0,Phases=1,Linecode=CABBTG02_4_1,Length=0.017000000,Units=km
new line.RML10152718 bus1=BBT149755894.2.0,bus2=RML1060152718.2.0,Phases=1,Linecode=CABBTG02_4_1,Length=0.017000000,Units=km
new line.RML10152721 bus1=BBT149755894.3.0,bus2=RML1060152721.3.0,Phases=1,Linecode=CABBTG02_4_1,Length=0.017000000,Units=km
new line.RML10152724 bus1=BBT149755894.3.0,bus2=RML1060152724.3.0,Phases=1,Linecode=CABBTG02_4_1,Length=0.017000000,Units=km
new line.RML10152728 bus1=BBT149755894.1.0,bus2=RML1060152728.1.0,Phases=1,Linecode=CABBTG02_4_1,Length=0.017000000,Units=km
new line.RML10152731 bus1=BBT149755894.2.0,bus2=RML1060152731.2.0,Phases=1,Linecode=CABBTG02_4_1,Length=0.017000000,Units=km
new line.RML10152743 bus1=BBT149755883.2.0,bus2=RML1060152743.2.0,Phases=1,Linecode=CABBTG02_4_1,Length=0.017000000,Units=km
new line.RML10152747 bus1=BBT149755883.1.0,bus2=RML1060152747.1.0,Phases=1,Linecode=CABBTG02_4_1,Length=0.017000000,Units=km
new line.RML10152748 bus1=BBT149755883.3.0,bus2=RML1060152748.3.0,Phases=1,Linecode=CABBTG02_4_1,Length=0.017000000,Units=km
new line.RML10152750 bus1=BBT149755873.2.0,bus2=RML1060152750.2.0,Phases=1,Linecode=CABBTG02_4_1,Length=0.017000000,Units=km
new line.RML10152752 bus1=BBT149755873.3.0,bus2=RML1060152752.3.0,Phases=1,Linecode=CABBTG02_4_1,Length=0.017000000,Units=km
new line.RML10152755 bus1=BBT149755873.1.0,bus2=RML1060152755.1.0,Phases=1,Linecode=CABBTG02_4_1,Length=0.017000000,Units=km
new line.RML10152761 bus1=BBT149755873.2.0,bus2=RML1060152761.2.0,Phases=1,Linecode=CABBTG02_4_1,Length=0.017000000,Units=km
new line.RML10152768 bus1=BBT149755527.2.0,bus2=RML1060152768.2.0,Phases=1,Linecode=CABBTG02_4_1,Length=0.017000000,Units=km
new line.RML10152770 bus1=BBT149755527.1.0,bus2=RML1060152770.1.0,Phases=1,Linecode=CABBTG02_4_1,Length=0.017000000,Units=km
new line.RML10152775 bus1=BBT149755527.3.0,bus2=RML1060152775.3.0,Phases=1,Linecode=CABBTG02_4_1,Length=0.017000000,Units=km
new line.RML10152790 bus1=BBT149755527.3.0,bus2=RML1060152790.3.0,Phases=1,Linecode=CABBTG02_4_1,Length=0.017000000,Units=km