new line.RML10032135 bus1=BBT13088788.1.2.0,bus2=RML210032135.1.2.0,Phases=2,Linecode=CABBTG05_4_2,Length=0.017000000,Units=km
new line.RML10032310 bus1=BBT823549.1.0,bus2=RML210032310.1.0,Phases=1,Linecode=CABBTG01_4_1,Length=0.017000000,Units=km
new line.RML10032329 bus1=BBT118698990.2.0,bus2=RML210032329.2.0,Phases=1,Linecode=CABBTG01_4_1,Length=0.017000000,Units=km
new line.RML10032382 bus1=BBT3153107.2.0,bus2=RML210032382.2.0,Phases=1,Linecode=CABBTG01_4_1,Length=0.017000000,Units=km
new line.RML10032395 bus1=BBT5528550.1.2.0,bus2=RML210032395.1.2.0,Phases=2,Linecode=CABBTG05_4_2,Length=0.017000000,Units=km
new line.RML10032397 bus1=BBT5172397.2.0,bus2=RML210032397.2.0,Phases=1,Linecode=CABBTG01_4_1,Length=0.017000000,Units=km
new line.RML10032816 bus1=BBT611610.1.0,bus2=RML210032816.1.0,Phases=1,Linecode=CABBTG01_4_1,Length=0.017000000,Units=km
new line.RML10032825 bus1=BBT3562775.1.2.0,bus2=RML210032825.1.2.0,Phases=2,Linecode=CABBTG05_4_2,Length=0.017000000,Units=km
new line.RML10032828 bus1=BBT5695500.1.0,bus2=RML210032828.1.0,Phases=1,Linecode=CABBTG01_4_1,Length=0.017000000,Units=km
new line.RML10033909 bus1=BBT2690764.1.0,bus2=RML210033909.1.0,Phases=1,Linecode=CABBTG01_4_1,Length=0.017000000,Units=km
new line.RML10033923 bus1=BBT134212075.2.0,bus2=RML210033923.2.0,Phases=1,Linecode=CABBTG01_4_1,Length=0.017000000,Units=km
new line.RML10033929 bus1=BBT2176306.1.0,bus2=RML210033929.1.0,Phases=1,Linecode=CABBTG01_4_1,Length=0.017000000,Units=km
new line.RML10033932 bus1=BBT808947.1.2.0,bus2=RML210033932.1.2.0,Phases=2,Linecode=CABBTG05_4_2,Length=0.017000000,Units=km
new line.RML10034097 bus1=BBT3169305.1.0,bus2=RML210034097.1.0,Phases=1,Linecode=CABBTG01_4_1,Length=0.017000000,Units=km
new line.RML10034175 bus1=BBT105510017.1.0,bus2=RML210034175.1.0,Phases=1,Linecode=CABBTG01_4_1,Length=0.017000000,Units=km
new line.RML10034356 bus1=BBT828288.1.2.0,bus2=RML210034356.1.2.0,Phases=2,Linecode=CABBTG05_4_2,Length=0.017000000,Units=km
new line.RML10034371 bus1=BBT819545.2.0,bus2=RML210034371.2.0,Phases=1,Linecode=CABBTG02_4_1,Length=0.017000000,Units=km
new line.RML10034384 bus1=BBT811208.1.2.0,bus2=RML210034384.1.2.0,Phases=2,Linecode=CABBTG05_4_2,Length=0.017000000,Units=km
new line.RML10034388 bus1=BBT27940807.2.0,bus2=RML210034388.2.0,Phases=1,Linecode=CABBTG01_4_1,Length=0.017000000,Units=km
new line.RML10034400 bus1=BBT4188827.1.0,bus2=RML210034400.1.0,Phases=1,Linecode=CABBTG02_4_1,Length=0.017000000,Units=km
new line.RML10034428 bus1=BBT134573212.2.0,bus2=RML210034428.2.0,Phases=1,Linecode=CABBTG01_4_1,Length=0.017000000,Units=km
new line.RML10034430 bus1=BBT831844.1.0,bus2=RML210034430.1.0,Phases=1,Linecode=CABBTG01_4_1,Length=0.017000000,Units=km
new line.RML10034431 bus1=BBT2689686.2.0,bus2=RML210034431.2.0,Phases=1,Linecode=CABBTG01_4_1,Length=0.017000000,Units=km
new line.RML10036038 bus1=BBT808653.1.2.0,bus2=RML210036038.1.2.0,Phases=2,Linecode=CABBTG04_4_2,Length=0.017000000,Units=km
new line.RML10036040 bus1=BBT825103.2.0,bus2=RML210036040.2.0,Phases=1,Linecode=CABBTG01_4_1,Length=0.017000000,Units=km
new line.RML10039203 bus1=BBT832950.1.0,bus2=RML210039203.1.0,Phases=1,Linecode=CABBTG02_4_1,Length=0.017000000,Units=km
new line.RML10039204 bus1=BBT819342.1.2.0,bus2=RML210039204.1.2.0,Phases=2,Linecode=CABBTG05_4_2,Length=0.017000000,Units=km
new line.RML10039205 bus1=BBT823948.1.0,bus2=RML210039205.1.0,Phases=1,Linecode=CABBTG02_4_1,Length=0.017000000,Units=km
new line.RML10039206 bus1=BBT13093030.1.2.0,bus2=RML210039206.1.2.0,Phases=2,Linecode=CABBTG05_4_2,Length=0.017000000,Units=km
new line.RML10039207 bus1=BBT814015.1.2.0,bus2=RML210039207.1.2.0,Phases=2,Linecode=CABBTG05_4_2,Length=0.017000000,Units=km
new line.RML10039210 bus1=BBT817781.1.2.0,bus2=RML210039210.1.2.0,Phases=2,Linecode=CABBTG05_4_2,Length=0.017000000,Units=km
new line.RML10093950 bus1=BBT148252731.2.0,bus2=RML210093950.2.0,Phases=1,Linecode=CABBTG01_4_1,Length=0.018000000,Units=km
new line.RML10096425 bus1=BBT581475.1.2.0,bus2=RML210096425.1.2.0,Phases=2,Linecode=CABBTG05_4_2,Length=0.017000000,Units=km
new line.RML10096460 bus1=BBT3290937.1.0,bus2=RML210096460.1.0,Phases=1,Linecode=CABBTG02_4_1,Length=0.017000000,Units=km
new line.RML1015776 bus1=BBT738275.1.2.0,bus2=RML201015776.1.2.0,Phases=2,Linecode=CABBTG05_4_2,Length=0.017000000,Units=km
new line.RML10157975 bus1=BBT815716.1.0,bus2=RML210157975.1.0,Phases=1,Linecode=CABBTG02_4_1,Length=0.017000000,Units=km
new line.RML10158015 bus1=BBT3169389.1.0,bus2=RML210158015.1.0,Phases=1,Linecode=CABBTG02_4_1,Length=0.017000000,Units=km
new line.RML10158040 bus1=BBT148253188.1.0,bus2=RML210158040.1.0,Phases=1,Linecode=CABBTG02_4_1,Length=0.017000000,Units=km
new line.RML10158084 bus1=BBT2368260.1.0,bus2=RML210158084.1.0,Phases=1,Linecode=CABBTG01_4_1,Length=0.017000000,Units=km
new line.RML10086332 bus1=BBT4126408.1.0,bus2=RML210086332.1.0,Phases=1,Linecode=CABBTG01_4_1,Length=0.012000000,Units=km
new line.RML10088248 bus1=BBT148146134.1.2.0,bus2=RML210088248.1.2.0,Phases=2,Linecode=CABBTG05_4_2,Length=0.021000000,Units=km
new line.RML10088893 bus1=BBT4532639.1.2.0,bus2=RML210088893.1.2.0,Phases=2,Linecode=CABBTG05_4_2,Length=0.017000000,Units=km
new line.RML1015041 bus1=BBT737505.1.2.0,bus2=RML201015041.1.2.0,Phases=2,Linecode=CABBTG05_4_2,Length=0.017000000,Units=km
new line.RML10151047 bus1=BBT149757180.3.0,bus2=RML210151047.3.0,Phases=1,Linecode=CABBTG02_4_1,Length=0.017000000,Units=km
new line.RML10151056 bus1=BBT149757146.1.0,bus2=RML210151056.1.0,Phases=1,Linecode=CABBTG02_4_1,Length=0.017000000,Units=km
new line.RML10151061 bus1=BBT149757146.2.0,bus2=RML210151061.2.0,Phases=1,Linecode=CABBTG02_4_1,Length=0.017000000,Units=km
new line.RML10151078 bus1=BBT149757318.3.0,bus2=RML210151078.3.0,Phases=1,Linecode=CABBTG02_4_1,Length=0.017000000,Units=km
new line.RML10151083 bus1=BBT149757359.1.0,bus2=RML210151083.1.0,Phases=1,Linecode=CABBTG02_4_1,Length=0.017000000,Units=km
new line.RML10151088 bus1=BBT149757359.2.0,bus2=RML210151088.2.0,Phases=1,Linecode=CABBTG02_4_1,Length=0.017000000,Units=km
new line.RML10151108 bus1=BBT149753187.1.2.0,bus2=RML210151108.1.2.0,Phases=2,Linecode=CABBTG05_4_2,Length=0.017000000,Units=km
new line.RML10151114 bus1=BBT149753187.1.3.0,bus2=RML210151114.1.3.0,Phases=2,Linecode=CABBTG05_4_2,Length=0.017000000,Units=km
new line.RML10151122 bus1=BBT149753187.2.0,bus2=RML210151122.2.0,Phases=1,Linecode=CABBTG02_4_1,Length=0.017000000,Units=km
new line.RML10151128 bus1=BBT149753187.1.0,bus2=RML210151128.1.0,Phases=1,Linecode=CABBTG02_4_1,Length=0.017000000,Units=km
new line.RML10151141 bus1=BBT149752433.3.0,bus2=RML210151141.3.0,Phases=1,Linecode=CABBTG02_4_1,Length=0.017000000,Units=km
new line.RML10151146 bus1=BBT149752433.2.0,bus2=RML210151146.2.0,Phases=1,Linecode=CABBTG02_4_1,Length=0.017000000,Units=km
new line.RML10151153 bus1=BBT149752433.1.0,bus2=RML210151153.1.0,Phases=1,Linecode=CABBTG02_4_1,Length=0.017000000,Units=km
new line.RML10151161 bus1=BBT149752433.3.0,bus2=RML210151161.3.0,Phases=1,Linecode=CABBTG02_4_1,Length=0.017000000,Units=km
new line.RML10151168 bus1=BBT149752433.2.0,bus2=RML210151168.2.0,Phases=1,Linecode=CABBTG02_4_1,Length=0.017000000,Units=km
new line.RML10151173 bus1=BBT149752433.3.0,bus2=RML210151173.3.0,Phases=1,Linecode=CABBTG02_4_1,Length=0.017000000,Units=km
new line.RML10151176 bus1=BBT149752433.1.0,bus2=RML210151176.1.0,Phases=1,Linecode=CABBTG02_4_1,Length=0.017000000,Units=km
new line.RML10151181 bus1=BBT149752433.1.0,bus2=RML210151181.1.0,Phases=1,Linecode=CABBTG02_4_1,Length=0.017000000,Units=km
new line.RML10151185 bus1=BBT149752433.2.0,bus2=RML210151185.2.0,Phases=1,Linecode=CABBTG02_4_1,Length=0.017000000,Units=km
new line.RML10151189 bus1=BBT149753126.1.0,bus2=RML210151189.1.0,Phases=1,Linecode=CABBTG02_4_1,Length=0.017000000,Units=km
new line.RML10151192 bus1=BBT149753126.3.0,bus2=RML210151192.3.0,Phases=1,Linecode=CABBTG02_4_1,Length=0.017000000,Units=km
new line.RML10151194 bus1=BBT149753126.2.0,bus2=RML210151194.2.0,Phases=1,Linecode=CABBTG02_4_1,Length=0.017000000,Units=km
new line.RML10151195 bus1=BBT149753126.3.0,bus2=RML210151195.3.0,Phases=1,Linecode=CABBTG02_4_1,Length=0.017000000,Units=km
new line.RML10151201 bus1=BBT149753126.1.0,bus2=RML210151201.1.0,Phases=1,Linecode=CABBTG02_4_1,Length=0.017000000,Units=km
new line.RML10151205 bus1=BBT149756833.3.0,bus2=RML210151205.3.0,Phases=1,Linecode=CABBTG02_4_1,Length=0.017000000,Units=km
new line.RML10151212 bus1=BBT149756631.1.0,bus2=RML210151212.1.0,Phases=1,Linecode=CABBTG02_4_1,Length=0.017000000,Units=km
new line.RML10151268 bus1=BBT149756631.2.0,bus2=RML210151268.2.0,Phases=1,Linecode=CABBTG02_4_1,Length=0.017000000,Units=km
new line.RML10151278 bus1=BBT149756631.3.0,bus2=RML210151278.3.0,Phases=1,Linecode=CABBTG02_4_1,Length=0.017000000,Units=km
new line.RML10151290 bus1=BBT149755354.1.0,bus2=RML210151290.1.0,Phases=1,Linecode=CABBTG02_4_1,Length=0.017000000,Units=km
new line.RML10151293 bus1=BBT149755354.2.0,bus2=RML210151293.2.0,Phases=1,Linecode=CABBTG02_4_1,Length=0.017000000,Units=km
new line.RML10151300 bus1=BBT149756702.3.0,bus2=RML210151300.3.0,Phases=1,Linecode=CABBTG02_4_1,Length=0.017000000,Units=km
new line.RML10151306 bus1=BBT149756702.2.0,bus2=RML210151306.2.0,Phases=1,Linecode=CABBTG02_4_1,Length=0.017000000,Units=km
new line.RML10151309 bus1=BBT149756702.1.0,bus2=RML210151309.1.0,Phases=1,Linecode=CABBTG02_4_1,Length=0.017000000,Units=km
new line.RML10151312 bus1=BBT149756702.1.0,bus2=RML210151312.1.0,Phases=1,Linecode=CABBTG02_4_1,Length=0.017000000,Units=km
new line.RML10151350 bus1=BBT149756220.1.0,bus2=RML210151350.1.0,Phases=1,Linecode=CABBTG02_4_1,Length=0.017000000,Units=km
new line.RML10151363 bus1=BBT149756220.2.0,bus2=RML210151363.2.0,Phases=1,Linecode=CABBTG02_4_1,Length=0.017000000,Units=km
new line.RML10151372 bus1=BBT149756220.3.0,bus2=RML210151372.3.0,Phases=1,Linecode=CABBTG02_4_1,Length=0.017000000,Units=km
new line.RML10151383 bus1=BBT149756209.1.0,bus2=RML210151383.1.0,Phases=1,Linecode=CABBTG02_4_1,Length=0.017000000,Units=km
new line.RML10151392 bus1=BBT149756209.2.0,bus2=RML210151392.2.0,Phases=1,Linecode=CABBTG02_4_1,Length=0.017000000,Units=km
new line.RML10151396 bus1=BBT149756209.3.0,bus2=RML210151396.3.0,Phases=1,Linecode=CABBTG02_4_1,Length=0.017000000,Units=km
new line.RML10151417 bus1=BBT149756203.2.0,bus2=RML210151417.2.0,Phases=1,Linecode=CABBTG02_4_1,Length=0.017000000,Units=km
new line.RML10151431 bus1=BBT149756203.1.0,bus2=RML210151431.1.0,Phases=1,Linecode=CABBTG02_4_1,Length=0.017000000,Units=km
new line.RML10151440 bus1=BBT149756203.3.0,bus2=RML210151440.3.0,Phases=1,Linecode=CABBTG02_4_1,Length=0.017000000,Units=km
new line.RML10151448 bus1=BBT149756203.1.0,bus2=RML210151448.1.0,Phases=1,Linecode=CABBTG02_4_1,Length=0.017000000,Units=km
new line.RML10151458 bus1=BBT149755393.1.0,bus2=RML210151458.1.0,Phases=1,Linecode=CABBTG02_4_1,Length=0.017000000,Units=km
new line.RML10151469 bus1=BBT149755393.2.0,bus2=RML210151469.2.0,Phases=1,Linecode=CABBTG02_4_1,Length=0.017000000,Units=km
new line.RML10151476 bus1=BBT149755393.3.0,bus2=RML210151476.3.0,Phases=1,Linecode=CABBTG02_4_1,Length=0.017000000,Units=km
new line.RML10151485 bus1=BBT149756171.3.0,bus2=RML210151485.3.0,Phases=1,Linecode=CABBTG02_4_1,Length=0.017000000,Units=km
new line.RML10151521 bus1=BBT149756496.2.0,bus2=RML210151521.2.0,Phases=1,Linecode=CABBTG02_4_1,Length=0.017000000,Units=km
new line.RML10151524 bus1=BBT149756496.1.0,bus2=RML210151524.1.0,Phases=1,Linecode=CABBTG02_4_1,Length=0.017000000,Units=km
new line.RML10151528 bus1=BBT149756496.3.0,bus2=RML210151528.3.0,Phases=1,Linecode=CABBTG02_4_1,Length=0.017000000,Units=km
new line.RML10151530 bus1=BBT149756496.2.0,bus2=RML210151530.2.0,Phases=1,Linecode=CABBTG02_4_1,Length=0.017000000,Units=km
new line.RML10151533 bus1=BBT149756496.1.0,bus2=RML210151533.1.0,Phases=1,Linecode=CABBTG02_4_1,Length=0.017000000,Units=km
new line.RML10151544 bus1=BBT149756496.3.0,bus2=RML210151544.3.0,Phases=1,Linecode=CABBTG02_4_1,Length=0.017000000,Units=km
new line.RML10151547 bus1=BBT149756496.2.0,bus2=RML210151547.2.0,Phases=1,Linecode=CABBTG02_4_1,Length=0.017000000,Units=km
new line.RML10151550 bus1=BBT149756496.1.0,bus2=RML210151550.1.0,Phases=1,Linecode=CABBTG02_4_1,Length=0.017000000,Units=km
new line.RML10151554 bus1=BBT149756496.1.0,bus2=RML210151554.1.0,Phases=1,Linecode=CABBTG02_4_1,Length=0.017000000,Units=km
new line.RML10151556 bus1=BBT149756496.3.0,bus2=RML210151556.3.0,Phases=1,Linecode=CABBTG02_4_1,Length=0.017000000,Units=km
new line.RML10151560 bus1=BBT149756496.2.0,bus2=RML210151560.2.0,Phases=1,Linecode=CABBTG02_4_1,Length=0.017000000,Units=km
new line.RML10151562 bus1=BBT149756496.2.0,bus2=RML210151562.2.0,Phases=1,Linecode=CABBTG02_4_1,Length=0.017000000,Units=km
new line.RML10151590 bus1=BBT149756522.1.0,bus2=RML210151590.1.0,Phases=1,Linecode=CABBTG02_4_1,Length=0.017000000,Units=km
new line.RML10151595 bus1=BBT149756522.3.0,bus2=RML210151595.3.0,Phases=1,Linecode=CABBTG02_4_1,Length=0.017000000,Units=km
new line.RML10151599 bus1=BBT149756522.2.0,bus2=RML210151599.2.0,Phases=1,Linecode=CABBTG02_4_1,Length=0.017000000,Units=km
new line.RML10151602 bus1=BBT149756522.2.0,bus2=RML210151602.2.0,Phases=1,Linecode=CABBTG02_4_1,Length=0.017000000,Units=km
new line.RML10151605 bus1=BBT149756522.3.0,bus2=RML210151605.3.0,Phases=1,Linecode=CABBTG02_4_1,Length=0.017000000,Units=km
new line.RML10151606 bus1=BBT149756522.1.0,bus2=RML210151606.1.0,Phases=1,Linecode=CABBTG02_4_1,Length=0.017000000,Units=km
new line.RML10151612 bus1=BBT149756522.3.0,bus2=RML210151612.3.0,Phases=1,Linecode=CABBTG02_4_1,Length=0.017000000,Units=km
new line.RML10151614 bus1=BBT149756522.2.0,bus2=RML210151614.2.0,Phases=1,Linecode=CABBTG02_4_1,Length=0.017000000,Units=km
new line.RML10151765 bus1=BBT149756523.2.0,bus2=RML210151765.2.0,Phases=1,Linecode=CABBTG02_4_1,Length=0.017000000,Units=km
new line.RML10151766 bus1=BBT149756523.1.0,bus2=RML210151766.1.0,Phases=1,Linecode=CABBTG02_4_1,Length=0.017000000,Units=km
new line.RML10151768 bus1=BBT149758053.3.0,bus2=RML210151768.3.0,Phases=1,Linecode=CABBTG02_4_1,Length=0.017000000,Units=km
new line.RML10151770 bus1=BBT149756523.2.0,bus2=RML210151770.2.0,Phases=1,Linecode=CABBTG02_4_1,Length=0.017000000,Units=km
new line.RML10151772 bus1=BBT149758053.1.0,bus2=RML210151772.1.0,Phases=1,Linecode=CABBTG02_4_1,Length=0.017000000,Units=km
new line.RML10151774 bus1=BBT149758053.3.0,bus2=RML210151774.3.0,Phases=1,Linecode=CABBTG02_4_1,Length=0.017000000,Units=km
new line.RML10151776 bus1=BBT149758046.2.0,bus2=RML210151776.2.0,Phases=1,Linecode=CABBTG02_4_1,Length=0.017000000,Units=km
new line.RML10151783 bus1=BBT149758053.2.0,bus2=RML210151783.2.0,Phases=1,Linecode=CABBTG02_4_1,Length=0.017000000,Units=km
new line.RML10151786 bus1=BBT149758046.1.0,bus2=RML210151786.1.0,Phases=1,Linecode=CABBTG02_4_1,Length=0.017000000,Units=km
new line.RML10151787 bus1=BBT149758046.3.0,bus2=RML210151787.3.0,Phases=1,Linecode=CABBTG02_4_1,Length=0.017000000,Units=km
new line.RML10151788 bus1=BBT149758046.1.0,bus2=RML210151788.1.0,Phases=1,Linecode=CABBTG02_4_1,Length=0.017000000,Units=km
new line.RML10151797 bus1=BBT149758046.1.3.0,bus2=RML210151797.1.3.0,Phases=2,Linecode=CABBTG05_4_2,Length=0.017000000,Units=km
new line.RML10151801 bus1=BBT149758046.3.0,bus2=RML210151801.3.0,Phases=1,Linecode=CABBTG02_4_1,Length=0.017000000,Units=km
new line.RML10151804 bus1=BBT149758046.2.0,bus2=RML210151804.2.0,Phases=1,Linecode=CABBTG02_4_1,Length=0.017000000,Units=km
new line.RML10151816 bus1=BBT149755825.1.0,bus2=RML210151816.1.0,Phases=1,Linecode=CABBTG02_4_1,Length=0.017000000,Units=km
new line.RML10151826 bus1=BBT149756904.2.0,bus2=RML210151826.2.0,Phases=1,Linecode=CABBTG02_4_1,Length=0.017000000,Units=km
new line.RML10151827 bus1=BBT149756904.1.0,bus2=RML210151827.1.0,Phases=1,Linecode=CABBTG02_4_1,Length=0.017000000,Units=km
new line.RML10151832 bus1=BBT149756904.3.0,bus2=RML210151832.3.0,Phases=1,Linecode=CABBTG02_4_1,Length=0.017000000,Units=km
new line.RML10151835 bus1=BBT149756904.1.0,bus2=RML210151835.1.0,Phases=1,Linecode=CABBTG02_4_1,Length=0.017000000,Units=km
new line.RML10151838 bus1=BBT149756904.2.0,bus2=RML210151838.2.0,Phases=1,Linecode=CABBTG02_4_1,Length=0.017000000,Units=km
new line.RML10151880 bus1=BBT149756904.3.0,bus2=RML210151880.3.0,Phases=1,Linecode=CABBTG02_4_1,Length=0.017000000,Units=km
new line.RML10151885 bus1=BBT149756904.1.0,bus2=RML210151885.1.0,Phases=1,Linecode=CABBTG02_4_1,Length=0.017000000,Units=km
new line.RML10151887 bus1=BBT149756904.2.0,bus2=RML210151887.2.0,Phases=1,Linecode=CABBTG02_4_1,Length=0.017000000,Units=km
new line.RML10151893 bus1=BBT149756950.2.0,bus2=RML210151893.2.0,Phases=1,Linecode=CABBTG02_4_1,Length=0.017000000,Units=km
new line.RML10151896 bus1=BBT149756950.1.0,bus2=RML210151896.1.0,Phases=1,Linecode=CABBTG02_4_1,Length=0.017000000,Units=km
new line.RML10151898 bus1=BBT149756950.3.0,bus2=RML210151898.3.0,Phases=1,Linecode=CABBTG02_4_1,Length=0.017000000,Units=km
new line.RML10151901 bus1=BBT149756950.2.0,bus2=RML210151901.2.0,Phases=1,Linecode=CABBTG02_4_1,Length=0.017000000,Units=km
new line.RML10151907 bus1=BBT149756950.1.0,bus2=RML210151907.1.0,Phases=1,Linecode=CABBTG02_4_1,Length=0.017000000,Units=km
new line.RML10151910 bus1=BBT149756950.1.0,bus2=RML210151910.1.0,Phases=1,Linecode=CABBTG02_4_1,Length=0.017000000,Units=km
new line.RML10151913 bus1=BBT149756950.3.0,bus2=RML210151913.3.0,Phases=1,Linecode=CABBTG02_4_1,Length=0.017000000,Units=km
new line.RML10151918 bus1=BBT149757946.2.0,bus2=RML210151918.2.0,Phases=1,Linecode=CABBTG02_4_1,Length=0.017000000,Units=km
new line.RML10151919 bus1=BBT149757946.3.0,bus2=RML210151919.3.0,Phases=1,Linecode=CABBTG02_4_1,Length=0.017000000,Units=km
new line.RML10151921 bus1=BBT149757946.2.0,bus2=RML210151921.2.0,Phases=1,Linecode=CABBTG02_4_1,Length=0.017000000,Units=km
new line.RML10151923 bus1=BBT149757946.1.0,bus2=RML210151923.1.0,Phases=1,Linecode=CABBTG02_4_1,Length=0.017000000,Units=km
new line.RML10151925 bus1=BBT149757946.1.0,bus2=RML210151925.1.0,Phases=1,Linecode=CABBTG02_4_1,Length=0.017000000,Units=km
new line.RML10151928 bus1=BBT149757923.1.0,bus2=RML210151928.1.0,Phases=1,Linecode=CABBTG02_4_1,Length=0.017000000,Units=km
new line.RML10151930 bus1=BBT149757923.2.0,bus2=RML210151930.2.0,Phases=1,Linecode=CABBTG02_4_1,Length=0.017000000,Units=km
new line.RML10151932 bus1=BBT149757923.3.0,bus2=RML210151932.3.0,Phases=1,Linecode=CABBTG02_4_1,Length=0.017000000,Units=km
new line.RML10151938 bus1=BBT149757923.1.0,bus2=RML210151938.1.0,Phases=1,Linecode=CABBTG02_4_1,Length=0.017000000,Units=km
new line.RML10151943 bus1=BBT149757923.3.0,bus2=RML210151943.3.0,Phases=1,Linecode=CABBTG02_4_1,Length=0.017000000,Units=km
new line.RML10151945 bus1=BBT149757923.2.0,bus2=RML210151945.2.0,Phases=1,Linecode=CABBTG02_4_1,Length=0.017000000,Units=km
new line.RML10151951 bus1=BBT149757905.2.0,bus2=RML210151951.2.0,Phases=1,Linecode=CABBTG02_4_1,Length=0.017000000,Units=km
new line.RML10151957 bus1=BBT149757905.1.0,bus2=RML210151957.1.0,Phases=1,Linecode=CABBTG02_4_1,Length=0.017000000,Units=km
new line.RML10151958 bus1=BBT149757905.1.0,bus2=RML210151958.1.0,Phases=1,Linecode=CABBTG02_4_1,Length=0.017000000,Units=km
new line.RML10151960 bus1=BBT149757905.3.0,bus2=RML210151960.3.0,Phases=1,Linecode=CABBTG02_4_1,Length=0.017000000,Units=km
new line.RML10151965 bus1=BBT149757905.2.0,bus2=RML210151965.2.0,Phases=1,Linecode=CABBTG02_4_1,Length=0.017000000,Units=km
new line.RML10151970 bus1=BBT149757905.3.0,bus2=RML210151970.3.0,Phases=1,Linecode=CABBTG02_4_1,Length=0.017000000,Units=km
new line.RML10151973 bus1=BBT149757905.3.0,bus2=RML210151973.3.0,Phases=1,Linecode=CABBTG02_4_1,Length=0.017000000,Units=km
new line.RML10151984 bus1=BBT149757433.3.0,bus2=RML210151984.3.0,Phases=1,Linecode=CABBTG02_4_1,Length=0.017000000,Units=km
new line.RML10151989 bus1=BBT149757433.1.0,bus2=RML210151989.1.0,Phases=1,Linecode=CABBTG02_4_1,Length=0.017000000,Units=km
new line.RML10151990 bus1=BBT149757433.2.0,bus2=RML210151990.2.0,Phases=1,Linecode=CABBTG02_4_1,Length=0.017000000,Units=km
new line.RML10151994 bus1=BBT149757433.2.0,bus2=RML210151994.2.0,Phases=1,Linecode=CABBTG02_4_1,Length=0.017000000,Units=km
new line.RML10151997 bus1=BBT149757433.1.0,bus2=RML210151997.1.0,Phases=1,Linecode=CABBTG02_4_1,Length=0.017000000,Units=km
new line.RML10151999 bus1=BBT149757433.1.0,bus2=RML210151999.1.0,Phases=1,Linecode=CABBTG02_4_1,Length=0.017000000,Units=km
new line.RML10152002 bus1=BBT149757433.3.0,bus2=RML210152002.3.0,Phases=1,Linecode=CABBTG02_4_1,Length=0.017000000,Units=km
new line.RML10152008 bus1=BBT149757487.3.0,bus2=RML210152008.3.0,Phases=1,Linecode=CABBTG02_4_1,Length=0.017000000,Units=km
new line.RML10152010 bus1=BBT149757487.2.0,bus2=RML210152010.2.0,Phases=1,Linecode=CABBTG02_4_1,Length=0.017000000,Units=km
new line.RML10152012 bus1=BBT149757487.1.0,bus2=RML210152012.1.0,Phases=1,Linecode=CABBTG02_4_1,Length=0.017000000,Units=km
new line.RML10152015 bus1=BBT149757487.3.0,bus2=RML210152015.3.0,Phases=1,Linecode=CABBTG02_4_1,Length=0.017000000,Units=km
new line.RML10152018 bus1=BBT149757487.2.0,bus2=RML210152018.2.0,Phases=1,Linecode=CABBTG02_4_1,Length=0.017000000,Units=km
new line.RML10152022 bus1=BBT149757883.1.0,bus2=RML210152022.1.0,Phases=1,Linecode=CABBTG02_4_1,Length=0.017000000,Units=km
new line.RML10152025 bus1=BBT149757883.3.0,bus2=RML210152025.3.0,Phases=1,Linecode=CABBTG02_4_1,Length=0.017000000,Units=km
new line.RML10152029 bus1=BBT149757879.3.0,bus2=RML210152029.3.0,Phases=1,Linecode=CABBTG02_4_1,Length=0.017000000,Units=km
new line.RML10152033 bus1=BBT149757879.1.0,bus2=RML210152033.1.0,Phases=1,Linecode=CABBTG02_4_1,Length=0.017000000,Units=km
new line.RML10152036 bus1=BBT149757879.2.0,bus2=RML210152036.2.0,Phases=1,Linecode=CABBTG02_4_1,Length=0.017000000,Units=km
new line.RML10152041 bus1=BBT149757879.2.0,bus2=RML210152041.2.0,Phases=1,Linecode=CABBTG02_4_1,Length=0.017000000,Units=km
new line.RML10152042 bus1=BBT149757879.1.0,bus2=RML210152042.1.0,Phases=1,Linecode=CABBTG02_4_1,Length=0.017000000,Units=km
new line.RML10152044 bus1=BBT149757879.3.0,bus2=RML210152044.3.0,Phases=1,Linecode=CABBTG02_4_1,Length=0.017000000,Units=km
new line.RML10152050 bus1=BBT149757855.3.0,bus2=RML210152050.3.0,Phases=1,Linecode=CABBTG02_4_1,Length=0.017000000,Units=km
new line.RML10152052 bus1=BBT149757855.1.0,bus2=RML210152052.1.0,Phases=1,Linecode=CABBTG02_4_1,Length=0.017000000,Units=km
new line.RML10152054 bus1=BBT149757855.2.0,bus2=RML210152054.2.0,Phases=1,Linecode=CABBTG02_4_1,Length=0.017000000,Units=km
new line.RML10152056 bus1=BBT149757855.3.0,bus2=RML210152056.3.0,Phases=1,Linecode=CABBTG02_4_1,Length=0.017000000,Units=km
new line.RML10152059 bus1=BBT149757855.1.0,bus2=RML210152059.1.0,Phases=1,Linecode=CABBTG02_4_1,Length=0.017000000,Units=km
new line.RML10152062 bus1=BBT149757855.2.0,bus2=RML210152062.2.0,Phases=1,Linecode=CABBTG02_4_1,Length=0.017000000,Units=km
new line.RML10152064 bus1=BBT149757855.2.0,bus2=RML210152064.2.0,Phases=1,Linecode=CABBTG02_4_1,Length=0.017000000,Units=km
new line.RML10152071 bus1=BBT149757855.3.0,bus2=RML210152071.3.0,Phases=1,Linecode=CABBTG02_4_1,Length=0.017000000,Units=km
new line.RML10152076 bus1=BBT149757855.1.0,bus2=RML210152076.1.0,Phases=1,Linecode=CABBTG02_4_1,Length=0.017000000,Units=km
new line.RML10152085 bus1=BBT149753543.1.0,bus2=RML210152085.1.0,Phases=1,Linecode=CABBTG02_4_1,Length=0.017000000,Units=km
new line.RML10152090 bus1=BBT149753543.2.0,bus2=RML210152090.2.0,Phases=1,Linecode=CABBTG02_4_1,Length=0.017000000,Units=km
new line.RML10152092 bus1=BBT149753543.2.0,bus2=RML210152092.2.0,Phases=1,Linecode=CABBTG02_4_1,Length=0.017000000,Units=km
new line.RML10152096 bus1=BBT149753543.3.0,bus2=RML210152096.3.0,Phases=1,Linecode=CABBTG02_4_1,Length=0.017000000,Units=km
new line.RML10152103 bus1=BBT149753543.1.0,bus2=RML210152103.1.0,Phases=1,Linecode=CABBTG02_4_1,Length=0.017000000,Units=km
new line.RML10152107 bus1=BBT149753543.3.0,bus2=RML210152107.3.0,Phases=1,Linecode=CABBTG02_4_1,Length=0.017000000,Units=km
new line.RML10152124 bus1=BBT4963944.1.2.0,bus2=RML210152124.1.2.0,Phases=2,Linecode=CABBTG05_4_2,Length=0.017000000,Units=km
new line.RML10152128 bus1=BBT5172621.1.2.0,bus2=RML210152128.1.2.0,Phases=2,Linecode=CABBTG05_4_2,Length=0.017000000,Units=km
new line.RML10152132 bus1=BBT149753543.2.0,bus2=RML210152132.2.0,Phases=1,Linecode=CABBTG02_4_1,Length=0.017000000,Units=km
new line.RML10152136 bus1=BBT149753543.1.0,bus2=RML210152136.1.0,Phases=1,Linecode=CABBTG02_4_1,Length=0.017000000,Units=km
new line.RML10152145 bus1=BBT149753543.2.0,bus2=RML210152145.2.0,Phases=1,Linecode=CABBTG02_4_1,Length=0.017000000,Units=km
new line.RML10152164 bus1=BBT149753559.3.0,bus2=RML210152164.3.0,Phases=1,Linecode=CABBTG02_4_1,Length=0.017000000,Units=km
new line.RML10152168 bus1=BBT149753559.1.0,bus2=RML210152168.1.0,Phases=1,Linecode=CABBTG02_4_1,Length=0.017000000,Units=km
new line.RML10152171 bus1=BBT149753559.1.0,bus2=RML210152171.1.0,Phases=1,Linecode=CABBTG02_4_1,Length=0.017000000,Units=km
new line.RML10152174 bus1=BBT149753559.2.0,bus2=RML210152174.2.0,Phases=1,Linecode=CABBTG02_4_1,Length=0.017000000,Units=km
new line.RML10152178 bus1=BBT149753559.3.0,bus2=RML210152178.3.0,Phases=1,Linecode=CABBTG02_4_1,Length=0.017000000,Units=km
new line.RML10152184 bus1=BBT149753559.2.0,bus2=RML210152184.2.0,Phases=1,Linecode=CABBTG02_4_1,Length=0.017000000,Units=km
new line.RML10152189 bus1=BBT149753559.1.0,bus2=RML210152189.1.0,Phases=1,Linecode=CABBTG02_4_1,Length=0.017000000,Units=km
new line.RML10152192 bus1=BBT149753559.2.0,bus2=RML210152192.2.0,Phases=1,Linecode=CABBTG02_4_1,Length=0.017000000,Units=km
new line.RML10152197 bus1=BBT149753587.2.0,bus2=RML210152197.2.0,Phases=1,Linecode=CABBTG02_4_1,Length=0.017000000,Units=km
new line.RML10152200 bus1=BBT149753587.3.0,bus2=RML210152200.3.0,Phases=1,Linecode=CABBTG02_4_1,Length=0.017000000,Units=km
new line.RML10152205 bus1=BBT149753587.1.0,bus2=RML210152205.1.0,Phases=1,Linecode=CABBTG02_4_1,Length=0.017000000,Units=km
new line.RML10152207 bus1=BBT149753587.2.0,bus2=RML210152207.2.0,Phases=1,Linecode=CABBTG02_4_1,Length=0.017000000,Units=km
new line.RML10152213 bus1=BBT149753587.3.0,bus2=RML210152213.3.0,Phases=1,Linecode=CABBTG02_4_1,Length=0.017000000,Units=km
new line.RML10152215 bus1=BBT149757218.1.0,bus2=RML210152215.1.0,Phases=1,Linecode=CABBTG02_4_1,Length=0.017000000,Units=km
new line.RML10152218 bus1=BBT149757218.2.0,bus2=RML210152218.2.0,Phases=1,Linecode=CABBTG02_4_1,Length=0.017000000,Units=km
new line.RML10152224 bus1=BBT149757218.3.0,bus2=RML210152224.3.0,Phases=1,Linecode=CABBTG02_4_1,Length=0.017000000,Units=km
new line.RML10152277 bus1=BBT149756085.3.0,bus2=RML210152277.3.0,Phases=1,Linecode=CABBTG02_4_1,Length=0.017000000,Units=km
new line.RML10152279 bus1=BBT149756085.1.0,bus2=RML210152279.1.0,Phases=1,Linecode=CABBTG02_4_1,Length=0.017000000,Units=km
new line.RML10152300 bus1=BBT149756072.1.0,bus2=RML210152300.1.0,Phases=1,Linecode=CABBTG02_4_1,Length=0.017000000,Units=km
new line.RML10152415 bus1=BBT149756220.1.0,bus2=RML210152415.1.0,Phases=1,Linecode=CABBTG02_4_1,Length=0.017000000,Units=km
new line.RML10152422 bus1=BBT149756072.2.0,bus2=RML210152422.2.0,Phases=1,Linecode=CABBTG02_4_1,Length=0.017000000,Units=km
new line.RML10152424 bus1=BBT149756072.3.0,bus2=RML210152424.3.0,Phases=1,Linecode=CABBTG02_4_1,Length=0.017000000,Units=km
new line.RML10152431 bus1=BBT149755471.3.0,bus2=RML210152431.3.0,Phases=1,Linecode=CABBTG02_4_1,Length=0.017000000,Units=km
new line.RML10152434 bus1=BBT149755471.2.0,bus2=RML210152434.2.0,Phases=1,Linecode=CABBTG02_4_1,Length=0.017000000,Units=km
new line.RML10152439 bus1=BBT149755471.1.0,bus2=RML210152439.1.0,Phases=1,Linecode=CABBTG02_4_1,Length=0.017000000,Units=km
new line.RML10152449 bus1=BBT149755988.1.0,bus2=RML210152449.1.0,Phases=1,Linecode=CABBTG02_4_1,Length=0.017000000,Units=km
new line.RML10152453 bus1=BBT149755988.3.0,bus2=RML210152453.3.0,Phases=1,Linecode=CABBTG02_4_1,Length=0.017000000,Units=km
new line.RML10152454 bus1=BBT149755988.2.0,bus2=RML210152454.2.0,Phases=1,Linecode=CABBTG02_4_1,Length=0.017000000,Units=km
new line.RML10152464 bus1=BBT149755992.2.0,bus2=RML210152464.2.0,Phases=1,Linecode=CABBTG02_4_1,Length=0.017000000,Units=km
new line.RML10152481 bus1=BBT149755992.3.0,bus2=RML210152481.3.0,Phases=1,Linecode=CABBTG02_4_1,Length=0.017000000,Units=km
new line.RML10062965 bus1=BBT146691871.1.2.0,bus2=RML210062965.1.2.0,Phases=2,Linecode=CABBTG05_4_2,Length=0.017000000,Units=km
new line.RML10066789 bus1=BBT3169445.2.0,bus2=RML210066789.2.0,Phases=1,Linecode=CABBTG02_4_1,Length=0.017000000,Units=km
new line.RML10066803 bus1=BBT3986611.2.0,bus2=RML210066803.2.0,Phases=1,Linecode=CABBTG02_4_1,Length=0.017000000,Units=km
new line.RML10066808 bus1=BBT586053.2.0,bus2=RML210066808.2.0,Phases=1,Linecode=CABBTG02_4_1,Length=0.017000000,Units=km
new line.RML10066828 bus1=BBT912197.2.3.0,bus2=RML210066828.2.3.0,Phases=2,Linecode=CABBTG05_4_2,Length=0.017000000,Units=km
new line.RML10105771 bus1=BBT3153639.1.0,bus2=RML210105771.1.0,Phases=1,Linecode=CABBTG02_4_1,Length=0.017000000,Units=km
new line.RML10105805 bus1=BBT3122678.1.0,bus2=RML210105805.1.0,Phases=1,Linecode=CABBTG02_4_1,Length=0.017000000,Units=km
new line.RML10105812 bus1=BBT6304801.2.0,bus2=RML210105812.2.0,Phases=1,Linecode=CABBTG02_4_1,Length=0.017000000,Units=km
new line.RML10105862 bus1=BBT5165810.1.2.0,bus2=RML210105862.1.2.0,Phases=2,Linecode=CABBTG05_4_2,Length=0.017000000,Units=km
new line.RML10105867 bus1=BBT813924.1.2.0,bus2=RML210105867.1.2.0,Phases=2,Linecode=CABBTG05_4_2,Length=0.017000000,Units=km
new line.RML10105895 bus1=BBT827210.1.2.3.0,bus2=RML210105895.1.2.3.0,Phases=3,Linecode=CABBTG06_4_3,Length=0.017000000,Units=km