new line.10577330 bus1=BBT2797440.1.2.0,bus2=BBT2241367.1.2.0,Phases=2,Linecode=BT108_BT107_7_2_1,Length=0.025285000,Units=km
new line.10577785 bus1=BBT2797930.1.2.3.0,bus2=BBT2797937.1.2.3.0,Phases=3,Linecode=BT810_BT810_4_3_4,Length=0.043393000,Units=km
new line.10577806 bus1=BBT2797909.1.2.3.0,bus2=BBT2797930.1.2.3.0,Phases=3,Linecode=BT810_BT810_4_3_4,Length=0.040290000,Units=km
new line.10577813 bus1=BBT2797909.1.2.3.0,bus2=BBT2797944.1.2.3.0,Phases=3,Linecode=BT810_BT810_4_3_4,Length=0.028638000,Units=km
new line.10577848 bus1=BBT2797902.1.2.3.0,bus2=BBT2797909.1.2.3.0,Phases=3,Linecode=BT803_BT803_4_3_4,Length=0.035492000,Units=km
new line.10577876 bus1=BBT2797895.1.2.3.0,bus2=BBT2797902.1.2.3.0,Phases=3,Linecode=BT803_BT803_4_3_4,Length=0.030348000,Units=km
new line.10577890 bus1=BBT2797888.1.2.3.0,bus2=BBT2797895.1.2.3.0,Phases=3,Linecode=BT803_BT803_4_3_4,Length=0.031304000,Units=km
new line.10577904 bus1=BBT2797657.1.2.3.0,bus2=BBT2797664.1.2.3.0,Phases=3,Linecode=BT810_BT810_4_3_4,Length=0.034522000,Units=km
new line.10577918 bus1=BBT2797664.1.2.3.0,bus2=BBT2797671.1.2.3.0,Phases=3,Linecode=BT810_BT810_4_3_4,Length=0.033224000,Units=km
new line.10577988 bus1=BBT2797881.1.2.3.0,bus2=BBT2797888.1.2.3.0,Phases=3,Linecode=BT803_BT803_4_3_4,Length=0.030348000,Units=km
new line.10578009 bus1=BBT2797874.1.2.3.0,bus2=BBT2797881.1.2.3.0,Phases=3,Linecode=BT803_BT803_4_3_4,Length=0.039829000,Units=km
new line.10578016 bus1=BBT2797867.1.2.3.0,bus2=BBT2797874.1.2.3.0,Phases=3,Linecode=BT518_BT518_7_3_1,Length=0.000500000,Units=km
new line.10578023 bus1=BBT2797874.1.2.3.0,bus2=BBT2797958.1.2.3.0,Phases=3,Linecode=BT803_BT803_4_3_4,Length=0.033224000,Units=km
new line.10578051 bus1=BBT2797958.1.2.3.0,bus2=BBT2797965.1.2.3.0,Phases=3,Linecode=BT803_BT803_4_3_4,Length=0.025285000,Units=km
new line.10578072 bus1=BBT2797965.1.2.3.0,bus2=BBT2797972.1.2.3.0,Phases=3,Linecode=BT803_BT803_4_3_4,Length=0.031032000,Units=km
new line.10578093 bus1=BBT2797972.1.2.3.0,bus2=BBT2797979.1.2.3.0,Phases=3,Linecode=BT810_BT810_4_3_4,Length=0.041571000,Units=km
new line.10578100 bus1=BBT2797972.1.2.0,bus2=BBT7042800.1.2.0,Phases=2,Linecode=BT808_BT808_4_2_3,Length=0.032678000,Units=km
new line.10578107 bus1=BBT2797972.1.2.0,bus2=BBT7042772.1.2.0,Phases=2,Linecode=BT808_BT808_4_2_3,Length=0.036872000,Units=km
new line.10578128 bus1=BBT2797979.1.2.3.0,bus2=BBT2797986.1.2.3.0,Phases=3,Linecode=BT810_BT810_4_3_4,Length=0.045286000,Units=km
new line.10578177 bus1=BBT2797986.1.2.3.0,bus2=BBT2797993.1.2.3.0,Phases=3,Linecode=BT810_BT810_4_3_4,Length=0.025948000,Units=km
new line.10578198 bus1=BBT2797783.1.2.3.0,bus2=BBT2797790.1.2.3.0,Phases=3,Linecode=BT803_BT803_4_3_4,Length=0.037927000,Units=km
new line.10578219 bus1=BBT2797762.1.2.3.0,bus2=BBT2240289.1.2.3.0,Phases=3,Linecode=BT803_BT803_4_3_4,Length=0.036381000,Units=km
new line.10578282 bus1=BBT2797755.1.2.3.0,bus2=BBT2797762.1.2.3.0,Phases=3,Linecode=BT803_BT803_4_3_4,Length=0.042931000,Units=km
new line.10578310 bus1=BBT2797748.1.2.3.0,bus2=BBT2797755.1.2.3.0,Phases=3,Linecode=BT803_BT803_4_3_4,Length=0.037623000,Units=km
new line.10578331 bus1=BBT2797741.1.2.3.0,bus2=BBT2797748.1.2.3.0,Phases=3,Linecode=BT803_BT803_4_3_4,Length=0.035716000,Units=km
new line.10578352 bus1=BBT2797734.1.2.3.0,bus2=BBT2797741.1.2.3.0,Phases=3,Linecode=BT803_BT803_4_3_4,Length=0.037623000,Units=km
new line.10578387 bus1=BBT2797727.1.2.3.0,bus2=BBT2797734.1.2.3.0,Phases=3,Linecode=BT803_BT803_4_3_4,Length=0.034464000,Units=km
new line.10578436 bus1=BBT2797706.1.2.3.0,bus2=BBT2797783.1.2.3.0,Phases=3,Linecode=BT803_BT803_4_3_4,Length=0.023075000,Units=km
new line.10578443 bus1=BBT2797706.1.2.3.0,bus2=BBT2797727.1.2.3.0,Phases=3,Linecode=BT803_BT803_4_3_4,Length=0.030660000,Units=km
new line.10578450 bus1=BBT2797699.1.2.3.0,bus2=BBT2797706.1.2.3.0,Phases=3,Linecode=BT518_BT518_7_3_1,Length=0.000500000,Units=km
new line.10578492 bus1=BBT2797790.1.2.3.0,bus2=BBT2797804.1.2.3.0,Phases=3,Linecode=BT803_BT803_4_3_4,Length=0.039197000,Units=km
new line.10578541 bus1=BBT2797804.1.2.3.0,bus2=BBT2797811.1.2.3.0,Phases=3,Linecode=BT803_BT803_4_3_4,Length=0.033820000,Units=km
new line.10578576 bus1=BBT2797811.1.2.3.0,bus2=BBT2797818.1.2.3.0,Phases=3,Linecode=BT803_BT803_4_3_4,Length=0.032967000,Units=km
new line.10578597 bus1=BBT2797818.1.2.3.0,bus2=BBT2797825.1.2.3.0,Phases=3,Linecode=BT803_BT803_4_3_4,Length=0.036120000,Units=km
new line.10578611 bus1=BBT2797825.1.2.3.0,bus2=BBT2797832.1.2.3.0,Phases=3,Linecode=BT803_BT803_4_3_4,Length=0.036120000,Units=km
new line.10578653 bus1=BBT2798056.1.2.3.0,bus2=BBT2798063.1.2.3.0,Phases=3,Linecode=BT803_BT803_4_3_4,Length=0.039273000,Units=km
new line.10578674 bus1=BBT2798049.1.2.3.0,bus2=BBT2798056.1.2.3.0,Phases=3,Linecode=BT803_BT803_4_3_4,Length=0.044079000,Units=km
new line.10578695 bus1=BBT2798042.1.2.3.0,bus2=BBT2798049.1.2.3.0,Phases=3,Linecode=BT803_BT803_4_3_4,Length=0.040771000,Units=km
new line.10578716 bus1=BBT2798035.1.2.3.0,bus2=BBT2798042.1.2.3.0,Phases=3,Linecode=BT803_BT803_4_3_4,Length=0.034507000,Units=km
new line.10578744 bus1=BBT2798028.1.2.3.0,bus2=BBT2798035.1.2.3.0,Phases=3,Linecode=BT803_BT803_4_3_4,Length=0.032541000,Units=km
new line.10578765 bus1=BBT2798007.1.2.3.0,bus2=BBT2798028.1.2.3.0,Phases=3,Linecode=BT803_BT803_4_3_4,Length=0.030398000,Units=km
new line.10578772 bus1=BBT2798000.1.2.3.0,bus2=BBT2798007.1.2.3.0,Phases=3,Linecode=BT518_BT518_7_3_1,Length=0.000500000,Units=km
new line.10578779 bus1=BBT2798007.1.2.3.0,bus2=BBT2913479.1.2.3.0,Phases=3,Linecode=BT803_BT803_4_3_4,Length=0.037343000,Units=km
new line.10578814 bus1=BBT2798098.1.2.3.0,bus2=BBT2798105.1.2.3.0,Phases=3,Linecode=BT803_BT803_4_3_4,Length=0.031384000,Units=km
new line.10578835 bus1=BBT2798105.1.2.3.0,bus2=BBT2798112.1.2.3.0,Phases=3,Linecode=BT803_BT803_4_3_4,Length=0.029413000,Units=km
new line.10578856 bus1=BBT2798112.1.2.3.0,bus2=BBT2798119.1.2.3.0,Phases=3,Linecode=BT803_BT803_4_3_4,Length=0.027280000,Units=km
new line.10578877 bus1=BBT2798119.1.2.3.0,bus2=BBT2798126.1.2.3.0,Phases=3,Linecode=BT810_BT810_4_3_4,Length=0.040500000,Units=km
new line.10578898 bus1=BBT2798126.1.2.3.0,bus2=BBT2798133.1.2.3.0,Phases=3,Linecode=BT810_BT810_4_3_4,Length=0.036669000,Units=km
new line.10578912 bus1=BBT2798168.1.2.3.0,bus2=BBT2798154.1.2.3.0,Phases=3,Linecode=BT810_BT810_4_3_4,Length=0.033224000,Units=km
new line.10578947 bus1=BBT2798161.1.2.3.0,bus2=BBT2798168.1.2.3.0,Phases=3,Linecode=BT810_BT810_4_3_4,Length=0.027189000,Units=km
new line.10580046 bus1=BBT2798287.1.2.3.0,bus2=BBT2798294.1.2.3.0,Phases=3,Linecode=BT810_BT810_4_3_4,Length=0.026893000,Units=km
new line.10600584 bus1=BBT2803124.1.2.0,bus2=BBT2803131.1.2.0,Phases=2,Linecode=BT810_BT810_4_2_4,Length=0.037720000,Units=km
new line.10600626 bus1=BBT2803131.1.2.0,bus2=BBT2803138.1.2.0,Phases=2,Linecode=BT810_BT810_4_2_4,Length=0.034000000,Units=km
new line.10600689 bus1=BBT2803138.1.2.0,bus2=BBT7458012.1.2.0,Phases=2,Linecode=BT808_BT808_4_2_3,Length=0.036220000,Units=km
new line.10604812 bus1=BBT2803838.1.2.0,bus2=BBT2803845.1.2.0,Phases=2,Linecode=BT518_BT518_7_2_1,Length=0.000500000,Units=km
new line.12426723 bus1=BBT3309259.1.2.0,bus2=BBT3309266.1.2.0,Phases=2,Linecode=BT513_BT513_7_2_1,Length=0.000500000,Units=km
new line.12426730 bus1=BBT3309266.1.2.0,bus2=BBT3309322.1.2.0,Phases=2,Linecode=BT808_BT808_4_2_3,Length=0.078840000,Units=km
new line.12426737 bus1=BBT3309266.1.2.0,bus2=BBT3309364.1.2.0,Phases=2,Linecode=BT808_BT808_4_2_3,Length=0.052987000,Units=km
new line.10936066 bus1=BBT2871703.1.2.0,bus2=BBT2871710.1.2.0,Phases=2,Linecode=BT807_BT807_4_2_3,Length=0.029953000,Units=km
new line.10936101 bus1=BBT2871689.1.2.0,bus2=BBT2871703.1.2.0,Phases=2,Linecode=BT807_BT807_4_2_3,Length=0.027282000,Units=km
new line.10936108 bus1=BBT2871689.1.2.0,bus2=BBT2871717.1.2.0,Phases=2,Linecode=BT808_BT808_4_2_3,Length=0.033600000,Units=km
new line.10936115 bus1=BBT2871689.1.2.0,bus2=BBT2871724.1.2.0,Phases=2,Linecode=BT808_BT808_4_2_3,Length=0.037719000,Units=km
new line.10936129 bus1=BBT2871668.1.2.0,bus2=BBT2871689.1.2.0,Phases=2,Linecode=BT807_BT807_4_2_3,Length=0.026821000,Units=km
new line.10936136 bus1=BBT2871661.1.2.0,bus2=BBT2871668.1.2.0,Phases=2,Linecode=BT518_BT518_7_2_1,Length=0.000500000,Units=km
new line.10936143 bus1=BBT2871668.1.2.0,bus2=BBT2871696.1.2.0,Phases=2,Linecode=BT807_BT807_4_2_3,Length=0.030515000,Units=km
new line.10936164 bus1=BBT2871696.1.2.0,bus2=BBT2871731.1.2.0,Phases=2,Linecode=BT808_BT808_4_2_3,Length=0.032234000,Units=km
new line.10936171 bus1=BBT2871696.1.2.0,bus2=BBT2871738.1.2.0,Phases=2,Linecode=BT808_BT808_4_2_3,Length=0.034870000,Units=km
new line.10936178 bus1=BBT2871696.1.2.0,bus2=BBT2871752.1.2.0,Phases=2,Linecode=BT807_BT807_4_2_3,Length=0.030792000,Units=km
new line.10936234 bus1=BBT2871745.1.2.0,bus2=BBT2871759.1.2.0,Phases=2,Linecode=BT808_BT808_4_2_3,Length=0.035494000,Units=km
new line.10936241 bus1=BBT2871745.1.2.0,bus2=BBT2871766.1.2.0,Phases=2,Linecode=BT808_BT808_4_2_3,Length=0.034640000,Units=km
new line.10936276 bus1=BBT2871682.1.2.0,bus2=BBT2871745.1.2.0,Phases=2,Linecode=BT807_BT807_4_2_3,Length=0.026237000,Units=km
new line.10936283 bus1=BBT2871675.1.2.0,bus2=BBT2871682.1.2.0,Phases=2,Linecode=BT518_BT518_7_2_1,Length=0.000500000,Units=km
new line.10936290 bus1=BBT2871682.1.2.0,bus2=BBT2871773.1.2.0,Phases=2,Linecode=BT807_BT807_4_2_3,Length=0.032543000,Units=km
new line.10936311 bus1=BBT2871773.1.2.0,bus2=BBT2871780.1.2.0,Phases=2,Linecode=BT808_BT808_4_2_3,Length=0.029685000,Units=km
new line.10936318 bus1=BBT2871773.1.2.0,bus2=BBT2871787.1.2.0,Phases=2,Linecode=BT808_BT808_4_2_3,Length=0.031227000,Units=km
new line.10936325 bus1=BBT2871773.1.2.0,bus2=BBT2871794.1.2.0,Phases=2,Linecode=BT807_BT807_4_2_3,Length=0.022013000,Units=km
new line.10936360 bus1=BBT2871794.1.2.0,bus2=BBT2871801.1.2.0,Phases=2,Linecode=BT807_BT807_4_2_3,Length=0.026895000,Units=km
new line.10936381 bus1=BBT2871801.1.2.0,bus2=BBT2871808.1.2.0,Phases=2,Linecode=BT808_BT808_4_2_3,Length=0.033926000,Units=km
new line.12181730 bus1=BBT3222032.1.2.0,bus2=BBT3222039.1.2.0,Phases=2,Linecode=BT807_BT807_4_2_3,Length=0.034870000,Units=km
new line.12181744 bus1=BBT3222039.1.2.0,bus2=BBT3222046.1.2.0,Phases=2,Linecode=BT807_BT807_4_2_3,Length=0.035212000,Units=km
new line.12181751 bus1=BBT3222046.1.2.0,bus2=BBT3222060.1.2.0,Phases=2,Linecode=BT807_BT807_4_2_3,Length=0.034984000,Units=km
new line.12181772 bus1=BBT3222060.1.2.0,bus2=BBT4859570.1.2.0,Phases=2,Linecode=BT808_BT808_4_2_3,Length=0.038271000,Units=km
new line.12185426 bus1=BBT3223152.1.2.0,bus2=BBT3223159.1.2.0,Phases=2,Linecode=BT801_BT801_4_2_3,Length=0.032296000,Units=km
new line.13115957 bus1=BBT153198357.1.2.0,bus2=BBT3570912.1.2.0,Phases=2,Linecode=BT807_BT807_4_2_3,Length=0.042991000,Units=km
new line.13115978 bus1=BBT3570898.1.2.0,bus2=BBT3570905.1.2.0,Phases=2,Linecode=BT807_BT807_4_2_3,Length=0.029819000,Units=km
new line.13115999 bus1=BBT3570926.1.2.0,bus2=BBT3570933.1.2.0,Phases=2,Linecode=BT807_BT807_4_2_3,Length=0.051590000,Units=km
new line.13116020 bus1=BBT3571073.1.2.0,bus2=BBT3571080.1.2.0,Phases=2,Linecode=BT803_BT803_4_2_4,Length=0.061882000,Units=km
new line.13116034 bus1=BBT3571087.1.2.0,bus2=BBT158951689.1.2.0,Phases=2,Linecode=BT801_BT801_4_2_3,Length=0.022462000,Units=km
new line.13116055 bus1=BBT3571101.1.2.0,bus2=BBT3571108.1.2.0,Phases=2,Linecode=BT801_BT801_4_2_3,Length=0.053910000,Units=km
new line.13116076 bus1=BBT3571108.1.2.0,bus2=BBT3571115.1.2.0,Phases=2,Linecode=BT801_BT801_4_2_3,Length=0.060799000,Units=km
new line.13116573 bus1=BBT3571339.1.2.0,bus2=BBT3571346.1.2.0,Phases=2,Linecode=BT107_BT106_7_2_1,Length=0.090957000,Units=km
new line.13116811 bus1=BBT6625712.1.2.0,bus2=BBT6625719.1.2.0,Phases=2,Linecode=BT518_BT518_7_2_1,Length=0.000500000,Units=km
new line.13118351 bus1=BBT3571962.1.2.0,bus2=BBT3571969.1.2.0,Phases=2,Linecode=BT807_BT807_4_2_3,Length=0.041706000,Units=km
new line.13118379 bus1=BBT3571955.1.2.0,bus2=BBT3571962.1.2.0,Phases=2,Linecode=BT807_BT807_4_2_3,Length=0.026895000,Units=km
new line.13118407 bus1=BBT3571955.1.2.0,bus2=BBT3571948.1.2.0,Phases=2,Linecode=BT807_BT807_4_2_3,Length=0.040342000,Units=km
new line.13118435 bus1=BBT3571948.1.2.0,bus2=BBT3571941.1.2.0,Phases=2,Linecode=BT807_BT807_4_2_3,Length=0.040342000,Units=km
new line.13118456 bus1=BBT3571941.1.2.0,bus2=BBT3571934.1.2.0,Phases=2,Linecode=BT107_BT107_7_2_1,Length=0.040342000,Units=km
new line.13118477 bus1=BBT3571934.1.2.0,bus2=BBT113345367.1.2.0,Phases=2,Linecode=BT107_BT107_7_2_1,Length=0.040342000,Units=km
new line.13118533 bus1=BBT3572060.1.2.0,bus2=BBT3572053.1.2.0,Phases=2,Linecode=BT807_BT807_4_2_3,Length=0.049384000,Units=km
new line.13118862 bus1=BBT3572305.1.2.0,bus2=BBT3572312.1.2.0,Phases=2,Linecode=BT807_BT807_4_2_3,Length=0.034466000,Units=km
new line.13119422 bus1=BBT3572480.1.2.0,bus2=BBT3572487.1.2.0,Phases=2,Linecode=BT107_BT107_7_2_1,Length=0.054399000,Units=km
new line.13119443 bus1=BBT3572473.1.2.0,bus2=BBT3572480.1.2.0,Phases=2,Linecode=BT107_BT107_7_2_1,Length=0.042700000,Units=km
new line.13119464 bus1=BBT3572459.1.2.0,bus2=BBT3572473.1.2.0,Phases=2,Linecode=BT107_BT107_7_2_1,Length=0.032296000,Units=km
new line.13120591 bus1=BBT3572711.1.2.0,bus2=BBT3572718.1.2.0,Phases=2,Linecode=BT207_BT207_7_2_1,Length=0.044082000,Units=km
new line.13120598 bus1=BBT3572711.1.2.0,bus2=BBT3572837.1.2.0,Phases=2,Linecode=BT811_BT811_4_2_3,Length=0.019714000,Units=km
new line.13120619 bus1=BBT3572732.1.2.0,bus2=BBT3572746.1.2.0,Phases=2,Linecode=BT807_BT807_4_2_3,Length=0.030792000,Units=km
new line.13120640 bus1=BBT3572746.1.2.0,bus2=BBT3572753.1.2.0,Phases=2,Linecode=BT807_BT807_4_2_3,Length=0.035212000,Units=km
new line.13120647 bus1=BBT3572746.1.2.0,bus2=BBT3572760.1.2.0,Phases=2,Linecode=BT808_BT808_4_2_3,Length=0.033511000,Units=km
new line.13122054 bus1=BBT3573054.1.2.0,bus2=BBT3573061.1.2.0,Phases=2,Linecode=BT801_BT801_4_2_3,Length=0.049977000,Units=km
new line.13122593 bus1=BBT7293687.1.2.0,bus2=BBT7293694.1.2.0,Phases=2,Linecode=BT808_BT808_4_2_3,Length=0.059006000,Units=km
new line.13122726 bus1=BBT3573404.1.2.0,bus2=BBT3573411.1.2.0,Phases=2,Linecode=BT801_BT801_4_2_3,Length=0.060113000,Units=km
new line.13123111 bus1=BBT109050440.1.2.0,bus2=BBT3573642.1.2.0,Phases=2,Linecode=BT801_BT801_4_2_3,Length=0.039033000,Units=km
new line.13123132 bus1=BBT3573635.1.2.0,bus2=BBT3573628.1.2.0,Phases=2,Linecode=BT801_BT801_4_2_3,Length=0.054537000,Units=km
new line.13123153 bus1=BBT3573628.1.2.0,bus2=BBT3573621.1.2.0,Phases=2,Linecode=BT801_BT801_4_2_3,Length=0.059789000,Units=km
new line.13123195 bus1=BBT3573663.1.2.0,bus2=BBT3573670.1.2.0,Phases=2,Linecode=BT801_BT801_4_2_3,Length=0.044979000,Units=km
new line.12426765 bus1=BBT3309322.1.2.0,bus2=BBT3309336.1.2.0,Phases=2,Linecode=BT808_BT808_4_2_3,Length=0.058576000,Units=km
new line.12426772 bus1=BBT3309322.1.2.0,bus2=BBT3309385.1.2.0,Phases=2,Linecode=BT808_BT808_4_2_3,Length=0.045203000,Units=km
new line.12427619 bus1=BBT3309336.1.2.0,bus2=BBT3309343.1.2.0,Phases=2,Linecode=BT808_BT808_4_2_3,Length=0.058499000,Units=km
new line.12427654 bus1=BBT3309343.1.2.0,bus2=BBT3309350.1.2.0,Phases=2,Linecode=BT808_BT808_4_2_3,Length=0.050969000,Units=km
new line.12427857 bus1=BBT3309077.1.2.0,bus2=BBT3309133.1.2.0,Phases=2,Linecode=BT808_BT808_4_2_3,Length=0.024073000,Units=km
new line.12427885 bus1=BBT3309070.1.2.0,bus2=BBT3309077.1.2.0,Phases=2,Linecode=BT807_BT807_4_2_3,Length=0.051086000,Units=km
new line.12427892 bus1=BBT3309063.1.2.0,bus2=BBT3309070.1.2.0,Phases=2,Linecode=BT518_BT518_7_2_1,Length=0.000500000,Units=km
new line.12427899 bus1=BBT3309070.1.2.0,bus2=BBT3309084.1.2.0,Phases=2,Linecode=BT807_BT807_4_2_3,Length=0.038932000,Units=km
new line.12427955 bus1=BBT3309084.1.2.0,bus2=BBT3309091.1.2.0,Phases=2,Linecode=BT808_BT808_4_2_3,Length=0.037786000,Units=km
new line.12427976 bus1=BBT3309091.1.2.0,bus2=BBT3309098.1.2.0,Phases=2,Linecode=BT808_BT808_4_2_3,Length=0.042420000,Units=km
new line.12428053 bus1=BBT3309133.1.2.0,bus2=BBT3309147.1.2.0,Phases=2,Linecode=BT808_BT808_4_2_3,Length=0.038194000,Units=km
new line.12428123 bus1=BBT3309315.1.2.0,bus2=BBT3309329.1.2.0,Phases=2,Linecode=BT808_BT808_4_2_3,Length=0.072914000,Units=km
new line.12428144 bus1=BBT3309308.1.2.0,bus2=BBT3309315.1.2.0,Phases=2,Linecode=BT808_BT808_4_2_3,Length=0.021252000,Units=km
new line.12428165 bus1=BBT3309301.1.2.0,bus2=BBT3309308.1.2.0,Phases=2,Linecode=BT808_BT808_4_2_3,Length=0.041092000,Units=km
new line.12428172 bus1=BBT3309280.1.2.0,bus2=BBT3309301.1.2.0,Phases=2,Linecode=BT807_BT807_4_2_3,Length=0.048446000,Units=km
new line.12428179 bus1=BBT3309273.1.2.0,bus2=BBT3309280.1.2.0,Phases=2,Linecode=BT518_BT518_7_2_1,Length=0.000500000,Units=km
new line.12428186 bus1=BBT3309280.1.2.0,bus2=BBT3309357.1.2.0,Phases=2,Linecode=BT807_BT807_4_2_3,Length=0.037984000,Units=km
new line.12428200 bus1=BBT3309371.1.2.0,bus2=BBT3309406.1.2.0,Phases=2,Linecode=BT810_BT810_4_2_4,Length=0.039983000,Units=km
new line.12428235 bus1=BBT3309357.1.2.0,bus2=BBT3309371.1.2.0,Phases=2,Linecode=BT807_BT807_4_2_3,Length=0.035000000,Units=km
new line.12428270 bus1=BBT3309406.1.2.0,bus2=BBT3309413.1.2.0,Phases=2,Linecode=BT810_BT810_4_2_4,Length=0.043582000,Units=km
new line.12428354 bus1=BBT3309441.1.2.0,bus2=BBT3309448.1.2.0,Phases=2,Linecode=BT808_BT808_4_2_3,Length=0.065119000,Units=km
new line.12428382 bus1=BBT3309434.1.2.0,bus2=BBT3309441.1.2.0,Phases=2,Linecode=BT808_BT808_4_2_3,Length=0.056492000,Units=km
new line.12428424 bus1=BBT3309427.1.2.0,bus2=BBT3309434.1.2.0,Phases=2,Linecode=BT807_BT807_4_2_3,Length=0.052132000,Units=km
new line.12428431 bus1=BBT3309420.1.2.0,bus2=BBT3309427.1.2.0,Phases=2,Linecode=BT518_BT518_7_2_1,Length=0.000500000,Units=km
new line.12428438 bus1=BBT3309427.1.2.0,bus2=BBT3309455.1.2.0,Phases=2,Linecode=BT807_BT807_4_2_3,Length=0.048022000,Units=km
new line.12428473 bus1=BBT3309455.1.2.0,bus2=BBT3309490.1.2.0,Phases=2,Linecode=BT808_BT808_4_2_3,Length=0.068001000,Units=km
new line.12428543 bus1=BBT3309476.1.2.0,bus2=BBT3309483.1.2.0,Phases=2,Linecode=BT807_BT807_4_2_3,Length=0.052132000,Units=km
new line.12428557 bus1=BBT3309469.1.2.0,bus2=BBT3309476.1.2.0,Phases=2,Linecode=BT807_BT807_4_2_3,Length=0.030401000,Units=km
new line.12428564 bus1=BBT3309462.1.2.0,bus2=BBT3309469.1.2.0,Phases=2,Linecode=BT518_BT518_7_2_1,Length=0.000500000,Units=km
new line.12428571 bus1=BBT3309469.1.2.0,bus2=BBT3309497.1.2.0,Phases=2,Linecode=BT807_BT807_4_2_3,Length=0.019992000,Units=km
new line.12428585 bus1=BBT3309497.1.2.0,bus2=BBT3309504.1.2.0,Phases=2,Linecode=BT808_BT808_4_2_3,Length=0.043640000,Units=km
new line.12428613 bus1=BBT3309504.1.2.0,bus2=BBT3309511.1.2.0,Phases=2,Linecode=BT808_BT808_4_2_3,Length=0.054429000,Units=km
new line.12428893 bus1=BBT3309364.1.2.0,bus2=BBT3309378.1.2.0,Phases=2,Linecode=BT808_BT808_4_2_3,Length=0.049658000,Units=km
new line.12428928 bus1=BBT3309385.1.2.0,bus2=BBT3309392.1.2.0,Phases=2,Linecode=BT808_BT808_4_2_3,Length=0.049173000,Units=km
new line.12428949 bus1=BBT3309392.1.2.0,bus2=BBT3309399.1.2.0,Phases=2,Linecode=BT808_BT808_4_2_3,Length=0.043249000,Units=km
new line.12918592 bus1=BBT3493688.1.0,bus2=BBT3493695.1.0,Phases=1,Linecode=BT811_BT811_4_1_3,Length=0.064972000,Units=km
new line.12918634 bus1=BBT3493695.1.0,bus2=BBT3493702.1.0,Phases=1,Linecode=BT811_BT811_4_1_3,Length=0.075631000,Units=km
new line.12919033 bus1=BBT3493905.1.0,bus2=BBT3493912.1.0,Phases=1,Linecode=BT816_BT816_4_1_2,Length=0.094299000,Units=km
new line.12919194 bus1=BBT3493947.1.2.0,bus2=BBT3493954.1.2.0,Phases=2,Linecode=BT107_BT107_7_2_1,Length=0.084816000,Units=km
new line.12935434 bus1=BBT3533658.1.2.0,bus2=BBT3533679.1.2.0,Phases=2,Linecode=BT801_BT801_4_2_3,Length=0.056542000,Units=km
new line.12935518 bus1=BBT151428654.1.2.0,bus2=BBT3533630.1.2.0,Phases=2,Linecode=BT801_BT801_4_2_3,Length=0.030515000,Units=km
new line.12935525 bus1=BBT151428536.1.2.0,bus2=BBT3533623.1.2.0,Phases=2,Linecode=BT801_BT801_4_2_3,Length=0.028005000,Units=km
new line.12935574 bus1=BBT3533630.1.2.0,bus2=BBT3533637.1.2.0,Phases=2,Linecode=BT801_BT801_4_2_3,Length=0.072829000,Units=km
new line.12936239 bus1=BBT3533735.1.2.0,bus2=BBT3533742.1.2.0,Phases=2,Linecode=BT107_BT107_7_2_1,Length=0.059972000,Units=km
new line.12939410 bus1=BBT3533987.2.0,bus2=BBT3533994.2.0,Phases=1,Linecode=BT206_BT206_7_1_1,Length=0.060798000,Units=km
new line.12944009 bus1=BBT3504300.1.0,bus2=BBT3504321.1.0,Phases=1,Linecode=BT106_BT106_7_1_1,Length=0.073339000,Units=km
new line.12944023 bus1=BBT3504321.1.0,bus2=BBT3504328.1.0,Phases=1,Linecode=BT106_BT106_7_1_1,Length=0.057278000,Units=km
new line.12946095 bus1=BBT3504167.1.0,bus2=BBT3504174.1.0,Phases=1,Linecode=BT106_BT106_7_1_1,Length=0.049975000,Units=km
new line.12946186 bus1=BBT3504181.1.2.0,bus2=BBT169811423.1.2.0,Phases=2,Linecode=BT807_BT807_4_2_3,Length=0.034983000,Units=km
new line.12958541 bus1=BBT3510089.1.2.0,bus2=BBT3510096.1.2.0,Phases=2,Linecode=BT518_BT518_7_2_1,Length=0.000500000,Units=km
new line.12958653 bus1=BBT7563663.1.2.3.0,bus2=BBT7563670.1.2.3.0,Phases=3,Linecode=BT518_BT518_7_3_1,Length=0.000500000,Units=km
new line.12968327 bus1=BBT7495161.1.2.0,bus2=BBT7656819.1.2.0,Phases=2,Linecode=BT108_BT107_7_2_1,Length=0.026409000,Units=km
new line.12968411 bus1=BBT6671373.1.2.0,bus2=BBT6671380.1.2.0,Phases=2,Linecode=BT808_BT808_4_2_3,Length=0.030874000,Units=km
new line.12969118 bus1=BBT3514653.1.2.3.0,bus2=BBT2323442.1.2.3.0,Phases=3,Linecode=BT803_BT803_4_3_4,Length=0.026066000,Units=km
new line.12969139 bus1=BBT3514660.1.2.3.0,bus2=BBT3514667.1.2.3.0,Phases=3,Linecode=BT803_BT803_4_3_4,Length=0.036220000,Units=km
new line.12969160 bus1=BBT3514667.1.2.3.0,bus2=BBT3514674.1.2.3.0,Phases=3,Linecode=BT803_BT803_4_3_4,Length=0.043167000,Units=km
new line.12969181 bus1=BBT3514674.1.2.3.0,bus2=BBT7491528.1.2.3.0,Phases=3,Linecode=BT810_BT810_4_3_4,Length=0.036781000,Units=km
new line.13591334 bus1=BBT3776866.1.2.3.0,bus2=BBT3776873.1.2.3.0,Phases=3,Linecode=BT517_BT517_5_3_1,Length=0.022462000,Units=km
new line.10083858 bus1=BBT4275763.1.2.0,bus2=BBT4275770.1.2.0,Phases=2,Linecode=BT106_BT106_7_2_1,Length=0.053824000,Units=km
new line.10084628 bus1=BBT3533959.1.2.0,bus2=BBT3533966.1.2.0,Phases=2,Linecode=BT107_BT107_7_2_1,Length=0.063223000,Units=km
new line.10084649 bus1=BBT3533945.1.2.0,bus2=BBT3533959.1.2.0,Phases=2,Linecode=BT107_BT107_7_2_1,Length=0.043257000,Units=km
new line.10084677 bus1=BBT3533938.1.2.0,bus2=BBT3533945.1.2.0,Phases=2,Linecode=BT107_BT107_7_2_1,Length=0.077040000,Units=km
new line.10084705 bus1=BBT3533924.1.2.0,bus2=BBT3533931.1.2.0,Phases=2,Linecode=BT107_BT107_7_2_1,Length=0.052176000,Units=km
new line.10084726 bus1=BBT3533917.1.2.0,bus2=BBT3533924.1.2.0,Phases=2,Linecode=BT107_BT107_7_2_1,Length=0.073646000,Units=km
new line.10084761 bus1=BBT3533910.1.2.0,bus2=BBT3533917.1.2.0,Phases=2,Linecode=BT107_BT107_7_2_1,Length=0.070315000,Units=km
new line.10084782 bus1=BBT3533903.1.2.0,bus2=BBT3533910.1.2.0,Phases=2,Linecode=BT107_BT107_7_2_1,Length=0.059971000,Units=km
new line.10084810 bus1=BBT3533882.1.2.0,bus2=BBT3533903.1.2.0,Phases=2,Linecode=BT107_BT107_7_2_1,Length=0.076121000,Units=km
new line.10084824 bus1=BBT3533875.1.2.0,bus2=BBT3533882.1.2.0,Phases=2,Linecode=BT107_BT107_7_2_1,Length=0.070676000,Units=km
new line.10084845 bus1=BBT3533861.1.2.0,bus2=BBT3533875.1.2.0,Phases=2,Linecode=BT107_BT107_7_2_1,Length=0.067049000,Units=km
new line.10084866 bus1=BBT3533847.1.2.0,bus2=BBT3533861.1.2.0,Phases=2,Linecode=BT107_BT107_7_2_1,Length=0.078064000,Units=km
new line.10084880 bus1=BBT3533812.1.2.0,bus2=BBT3533819.1.2.0,Phases=2,Linecode=BT107_BT107_7_2_1,Length=0.075733000,Units=km
new line.10084901 bus1=BBT3533819.1.2.0,bus2=BBT3533826.1.2.0,Phases=2,Linecode=BT107_BT107_7_2_1,Length=0.063215000,Units=km
new line.10084936 bus1=BBT3533826.1.2.0,bus2=BBT3533833.1.2.0,Phases=2,Linecode=BT107_BT107_7_2_1,Length=0.078065000,Units=km
new line.10084957 bus1=BBT3533833.1.2.0,bus2=BBT3533840.1.2.0,Phases=2,Linecode=BT107_BT107_7_2_1,Length=0.050582000,Units=km
new line.10085594 bus1=BBT3570604.1.2.0,bus2=BBT125949798.1.2.0,Phases=2,Linecode=BT807_BT807_4_2_3,Length=0.021014000,Units=km
new line.11329529 bus1=BBT2978726.1.2.3.0,bus2=BBT2978733.1.2.3.0,Phases=3,Linecode=BT514_BT514_7_3_1,Length=0.000500000,Units=km
new line.12237205 bus1=BBT3241261.1.2.0,bus2=BBT3241268.1.2.0,Phases=2,Linecode=BT518_BT518_7_2_1,Length=0.000500000,Units=km
new line.12239466 bus1=BBT3241940.1.2.0,bus2=BBT3241947.1.2.0,Phases=2,Linecode=BT518_BT518_7_2_1,Length=0.000500000,Units=km
new line.12242560 bus1=BBT3243207.1.2.3.0,bus2=BBT3243214.1.2.3.0,Phases=3,Linecode=BT518_BT518_7_3_1,Length=0.000500000,Units=km
new line.12266290 bus1=BBT131577966.1.2.0,bus2=BBT131580654.1.2.0,Phases=2,Linecode=BT803_BT803_4_2_4,Length=0.050426000,Units=km
new line.12266297 bus1=BBT131580654.1.2.0,bus2=BBT164044932.1.2.0,Phases=2,Linecode=BT808_BT808_4_2_3,Length=0.031035000,Units=km
new line.12271673 bus1=BBT3253350.1.2.3.0,bus2=BBT3546713.1.2.3.0,Phases=3,Linecode=BT810_BT810_4_3_4,Length=0.023010000,Units=km
new line.12271687 bus1=BBT3253357.1.2.3.0,bus2=BBT3253364.1.2.3.0,Phases=3,Linecode=BT810_BT810_4_3_4,Length=0.033982000,Units=km
new line.12271701 bus1=BBT3253364.1.2.3.0,bus2=BBT3253371.1.2.3.0,Phases=3,Linecode=BT810_BT810_4_3_4,Length=0.028985000,Units=km
new line.12271743 bus1=BBT3253413.1.2.3.0,bus2=BBT2240198.1.2.3.0,Phases=3,Linecode=BT808_BT808_4_3_3,Length=0.015803000,Units=km
new line.12271750 bus1=BBT3253413.1.2.3.0,bus2=BBT3253420.1.2.3.0,Phases=3,Linecode=BT808_BT808_4_3_3,Length=0.025067000,Units=km
new line.12271771 bus1=BBT3253420.1.2.3.0,bus2=BBT3253427.1.2.3.0,Phases=3,Linecode=BT808_BT808_4_3_3,Length=0.013885000,Units=km
new line.12271792 bus1=BBT3253427.1.2.3.0,bus2=BBT3253434.1.2.3.0,Phases=3,Linecode=BT808_BT808_4_3_3,Length=0.023694000,Units=km
new line.12271820 bus1=BBT3253434.1.2.3.0,bus2=BBT3253441.1.2.3.0,Phases=3,Linecode=BT808_BT808_4_3_3,Length=0.024685000,Units=km
new line.12717391 bus1=BBT3416177.1.2.3.0,bus2=BBT2238322.1.2.3.0,Phases=3,Linecode=BT107_BT107_7_3_1,Length=0.016484000,Units=km
new line.12763703 bus1=BBT3430051.1.2.0,bus2=BBT3430058.1.2.0,Phases=2,Linecode=BT518_BT518_7_2_1,Length=0.000500000,Units=km
new line.13587673 bus1=BBT3774815.1.2.3.0,bus2=BBT106388277.1.2.3.0,Phases=3,Linecode=BT803_BT803_4_3_4,Length=0.031608000,Units=km
new line.13587939 bus1=BBT3774913.1.2.0,bus2=BBT3774920.1.2.0,Phases=2,Linecode=BT518_BT518_7_2_1,Length=0.000500000,Units=km
new line.13588520 bus1=BBT3775445.1.2.3.0,bus2=BBT3775452.1.2.3.0,Phases=3,Linecode=BT517_BT517_5_3_1,Length=0.032235000,Units=km
new line.13588541 bus1=BBT3775438.1.2.3.0,bus2=BBT3775445.1.2.3.0,Phases=3,Linecode=BT517_BT517_5_3_1,Length=0.029517000,Units=km
new line.13588562 bus1=BBT3775431.1.2.3.0,bus2=BBT3775438.1.2.3.0,Phases=3,Linecode=BT517_BT517_5_3_1,Length=0.035340000,Units=km
new line.13588583 bus1=BBT3775424.1.2.3.0,bus2=BBT3775431.1.2.3.0,Phases=3,Linecode=BT517_BT517_5_3_1,Length=0.028640000,Units=km
new line.13588597 bus1=BBT3775417.1.2.3.0,bus2=BBT3775424.1.2.3.0,Phases=3,Linecode=BT517_BT517_5_3_1,Length=0.035495000,Units=km
new line.13588618 bus1=BBT3775410.1.2.3.0,bus2=BBT3775417.1.2.3.0,Phases=3,Linecode=BT517_BT517_5_3_1,Length=0.028640000,Units=km
new line.13588653 bus1=BBT3775403.1.2.3.0,bus2=BBT3775410.1.2.3.0,Phases=3,Linecode=BT517_BT517_5_3_1,Length=0.027773000,Units=km
new line.13588667 bus1=BBT3775396.1.2.3.0,bus2=BBT3775403.1.2.3.0,Phases=3,Linecode=BT517_BT517_5_3_1,Length=0.030400000,Units=km
new line.13588681 bus1=BBT3775389.1.2.3.0,bus2=BBT3775396.1.2.3.0,Phases=3,Linecode=BT517_BT517_5_3_1,Length=0.024687000,Units=km
new line.13588702 bus1=BBT3775382.1.2.3.0,bus2=BBT3775389.1.2.3.0,Phases=3,Linecode=BT517_BT517_5_3_1,Length=0.026914000,Units=km
new line.13588716 bus1=BBT3775375.1.2.3.0,bus2=BBT3775382.1.2.3.0,Phases=3,Linecode=BT517_BT517_5_3_1,Length=0.033106000,Units=km
new line.13588730 bus1=BBT3775368.1.2.3.0,bus2=BBT3775375.1.2.3.0,Phases=3,Linecode=BT517_BT517_5_3_1,Length=0.023314000,Units=km
new line.13588737 bus1=BBT3775368.1.2.3.0,bus2=BBT3777069.1.2.3.0,Phases=3,Linecode=BT517_BT517_5_3_1,Length=0.029056000,Units=km
new line.13588758 bus1=BBT3777069.1.2.3.0,bus2=BBT3777076.1.2.3.0,Phases=3,Linecode=BT517_BT517_5_3_1,Length=0.022815000,Units=km
new line.13588779 bus1=BBT3777076.1.2.3.0,bus2=BBT3777083.1.2.3.0,Phases=3,Linecode=BT517_BT517_5_3_1,Length=0.027773000,Units=km
new line.13589276 bus1=BBT3776873.1.2.3.0,bus2=BBT3776880.1.2.3.0,Phases=3,Linecode=BT517_BT517_5_3_1,Length=0.030070000,Units=km
new line.13821088 bus1=BBT3854034.1.2.0,bus2=BBT2240625.1.2.0,Phases=2,Linecode=BT807_BT807_4_2_3,Length=0.031032000,Units=km
new line.14663160 bus1=BBT4362514.1.2.3.0,bus2=BBT4362521.1.2.3.0,Phases=3,Linecode=BT810_BT810_4_3_4,Length=0.038033000,Units=km
new line.14663237 bus1=BBT4362619.1.2.3.0,bus2=BBT2239932.1.2.3.0,Phases=3,Linecode=BT108_BT107_7_3_1,Length=0.013032000,Units=km
new line.14663244 bus1=BBT4362619.1.2.3.0,bus2=BBT4362640.1.2.3.0,Phases=3,Linecode=BT810_BT810_4_3_4,Length=0.019713000,Units=km
new line.14663251 bus1=BBT4362640.1.2.3.0,bus2=BBT4362647.1.2.3.0,Phases=3,Linecode=BT810_BT810_4_3_4,Length=0.017879000,Units=km
new line.14663258 bus1=BBT4362647.1.2.3.0,bus2=BBT4362654.1.2.3.0,Phases=3,Linecode=BT810_BT810_4_3_4,Length=0.007806000,Units=km
new line.11098662 bus1=BBT2911351.1.2.3.0,bus2=BBT2238518.1.2.3.0,Phases=3,Linecode=BT803_BT803_4_3_4,Length=0.016484000,Units=km
new line.11098669 bus1=BBT2911351.1.2.3.0,bus2=BBT2911358.1.2.3.0,Phases=3,Linecode=BT810_BT810_4_3_4,Length=0.029259000,Units=km
new line.11098970 bus1=BBT2235578.1.2.3.0,bus2=BBT2911407.1.2.3.0,Phases=3,Linecode=BT803_BT803_4_3_4,Length=0.034349000,Units=km
new line.11098977 bus1=BBT2911407.1.2.3.0,bus2=BBT23698299.1.2.3.0,Phases=3,Linecode=BT803_BT803_4_3_4,Length=0.006705000,Units=km
new line.11106866 bus1=BBT2913479.1.2.3.0,bus2=BBT2798098.1.2.3.0,Phases=3,Linecode=BT803_BT803_4_3_4,Length=0.041607000,Units=km