new line.RML10005024 bus1=BBT165215041.1.2.0,bus2=RML1060005024.1.2.0,Phases=2,Linecode=CABBTG05_4_2,Length=0.017000000,Units=km
new line.RML10006263 bus1=BBT2279307.1.2.0,bus2=RML1060006263.1.2.0,Phases=2,Linecode=CABBTG05_4_2,Length=0.017000000,Units=km
new line.RML10006641 bus1=BBT3677634.1.2.0,bus2=RML1060006641.1.2.0,Phases=2,Linecode=CABBTG05_4_2,Length=0.017000000,Units=km
new line.RML10006697 bus1=BBT2290955.1.2.0,bus2=RML1060006697.1.2.0,Phases=2,Linecode=CABBTG05_4_2,Length=0.017000000,Units=km
new line.RML10010351 bus1=BBT18224236.1.2.0,bus2=RML1060010351.1.2.0,Phases=2,Linecode=CABBTG05_4_2,Length=0.017000000,Units=km
new line.RML10010358 bus1=BBT2306558.1.2.0,bus2=RML1060010358.1.2.0,Phases=2,Linecode=CABBTG05_4_2,Length=0.017000000,Units=km
new line.RML10010463 bus1=BBT2048489.1.2.3.0,bus2=RML1060010463.1.2.3.0,Phases=3,Linecode=CABBTG06_4_3,Length=0.017000000,Units=km
new line.RML10016546 bus1=BBT28042933.1.0,bus2=RML1060016546.1.0,Phases=1,Linecode=CABBTG01_4_1,Length=0.017000000,Units=km
new line.RML10023868 bus1=BBT3533749.1.2.0,bus2=RML1060023868.1.2.0,Phases=2,Linecode=CABBTG05_4_2,Length=0.017000000,Units=km
new line.RML10024183 bus1=BBT3571801.1.0,bus2=RML1060024183.1.0,Phases=1,Linecode=CABBTG02_4_1,Length=0.017000000,Units=km
new line.RML10024232 bus1=BBT21885614.1.2.0,bus2=RML1060024232.1.2.0,Phases=2,Linecode=CABBTG05_4_2,Length=0.017000000,Units=km
new line.RML10024344 bus1=BBT2305270.1.2.0,bus2=RML1060024344.1.2.0,Phases=2,Linecode=CABBTG05_4_2,Length=0.017000000,Units=km
new line.RML10030266 bus1=BBT2260260.1.3.0,bus2=RML1060030266.1.3.0,Phases=2,Linecode=CABBTG04_4_2,Length=0.017000000,Units=km
new line.RML10031533 bus1=BBT2306418.1.2.0,bus2=RML1060031533.1.2.0,Phases=2,Linecode=CABBTG05_4_2,Length=0.017000000,Units=km
new line.RML10090337 bus1=BBT2231511.1.2.0,bus2=RML1060090337.1.2.0,Phases=2,Linecode=CABBTG05_4_2,Length=0.017000000,Units=km
new line.RML10090481 bus1=BBT2240527.1.2.0,bus2=RML1060090481.1.2.0,Phases=2,Linecode=CABBTG05_4_2,Length=0.017000000,Units=km
new line.RML10090491 bus1=BBT4485077.1.2.0,bus2=RML1060090491.1.2.0,Phases=2,Linecode=CABBTG05_4_2,Length=0.017000000,Units=km
new line.RML10091919 bus1=BBT2240107.1.2.0,bus2=RML1060091919.1.2.0,Phases=2,Linecode=CABBTG04_4_2,Length=0.017000000,Units=km
new line.RML10091975 bus1=BBT2323708.1.2.0,bus2=RML1060091975.1.2.0,Phases=2,Linecode=CABBTG04_4_2,Length=0.017000000,Units=km
new line.RML10092067 bus1=BBT28039517.1.0,bus2=RML1060092067.1.0,Phases=1,Linecode=CABBTG02_4_1,Length=0.017000000,Units=km
new line.RML10092218 bus1=BBT2238511.1.2.3.0,bus2=RML1060092218.1.2.3.0,Phases=3,Linecode=CABBTG07_4_3,Length=0.017000000,Units=km
new line.RML10092264 bus1=BBT2798028.1.2.0,bus2=RML1060092264.1.2.0,Phases=2,Linecode=CABBTG05_4_2,Length=0.017000000,Units=km
new line.RML10092273 bus1=BBT2259966.1.2.3.0,bus2=RML1060092273.1.2.3.0,Phases=3,Linecode=CABBTG07_4_3,Length=0.017000000,Units=km
new line.RML10092307 bus1=BBT2232610.1.2.3.0,bus2=RML1060092307.1.2.3.0,Phases=3,Linecode=CABBTG07_4_3,Length=0.017000000,Units=km
new line.RML10092372 bus1=BBT2315007.1.2.0,bus2=RML1060092372.1.2.0,Phases=2,Linecode=CABBTG04_4_2,Length=0.017000000,Units=km
new line.RML10092397 bus1=BBT2308504.1.2.0,bus2=RML1060092397.1.2.0,Phases=2,Linecode=CABBTG04_4_2,Length=0.017000000,Units=km
new line.RML10092545 bus1=BBT2233261.1.2.0,bus2=RML1060092545.1.2.0,Phases=2,Linecode=CABBT811_4_2,Length=0.017000000,Units=km
new line.RML10092618 bus1=BBT2290815.2.0,bus2=RML1060092618.2.0,Phases=1,Linecode=CABBTG02_4_1,Length=0.017000000,Units=km
new line.RML10092680 bus1=BBT2230734.1.2.0,bus2=RML1060092680.1.2.0,Phases=2,Linecode=CABBTG05_4_2,Length=0.017000000,Units=km
new line.RML10092687 bus1=BBT2230734.1.2.0,bus2=RML1060092687.1.2.0,Phases=2,Linecode=CABBTG05_4_2,Length=0.017000000,Units=km
new line.RML10092700 bus1=BBT2230734.1.2.0,bus2=RML1060092700.1.2.0,Phases=2,Linecode=CABBTG05_4_2,Length=0.017000000,Units=km
new line.RML10092721 bus1=BBT2845740.1.2.0,bus2=RML1060092721.1.2.0,Phases=2,Linecode=CABBTG05_4_2,Length=0.017000000,Units=km
new line.RML10092804 bus1=BBT2239400.1.2.0,bus2=RML1060092804.1.2.0,Phases=2,Linecode=CABBTG05_4_2,Length=0.017000000,Units=km
new line.RML10093262 bus1=BBT2312284.1.2.0,bus2=RML1060093262.1.2.0,Phases=2,Linecode=CABBTG04_4_2,Length=0.017000000,Units=km
new line.RML10094108 bus1=BBT2279825.1.2.0,bus2=RML1060094108.1.2.0,Phases=2,Linecode=CABBTG05_4_2,Length=0.017000000,Units=km
new line.RML10094656 bus1=BBT28041729.1.2.0,bus2=RML1060094656.1.2.0,Phases=2,Linecode=CABBTG05_4_2,Length=0.017000000,Units=km
new line.RML10094831 bus1=BBT3545922.1.2.0,bus2=RML1060094831.1.2.0,Phases=2,Linecode=CABBTG05_4_2,Length=0.017000000,Units=km
new line.RML10095612 bus1=BBT2357714.1.2.0,bus2=RML1060095612.1.2.0,Phases=2,Linecode=CABBTG05_4_2,Length=0.017000000,Units=km
new line.RML10096317 bus1=BBT165215041.1.2.0,bus2=RML1060096317.1.2.0,Phases=2,Linecode=CABBTG05_4_2,Length=0.030000000,Units=km
new line.RML10147026 bus1=BBT2797825.2.3.0,bus2=RML1060147026.2.3.0,Phases=2,Linecode=CABBTG05_4_2,Length=0.017000000,Units=km
new line.RML10147936 bus1=BBT2354557.1.2.3.0,bus2=RML1060147936.1.2.3.0,Phases=3,Linecode=CABBTG08_4_3,Length=0.017000000,Units=km
new line.RML10148039 bus1=BBT4460815.2.0,bus2=RML1060148039.2.0,Phases=1,Linecode=CABBTG02_4_1,Length=0.017000000,Units=km
new line.RML10148156 bus1=BBT2231623.1.2.3.0,bus2=RML1060148156.1.2.3.0,Phases=3,Linecode=CABBTG06_4_3,Length=0.017000000,Units=km
new line.RML10149153 bus1=BBT28042744.1.2.0,bus2=RML1060149153.1.2.0,Phases=2,Linecode=CABBTG04_4_2,Length=0.017000000,Units=km
new line.RML10149168 bus1=BBT28042926.1.0,bus2=RML1060149168.1.0,Phases=1,Linecode=CABBTG02_4_1,Length=0.017000000,Units=km
new line.RML10149270 bus1=BBT28030305.1.0,bus2=RML1060149270.1.0,Phases=1,Linecode=CABBTG02_4_1,Length=0.030000000,Units=km
new line.RML10150697 bus1=BBT122050028.2.0,bus2=RML1060150697.2.0,Phases=1,Linecode=CABBTG02_4_1,Length=0.017000000,Units=km
new line.RML10150698 bus1=BBT3545915.1.0,bus2=RML1060150698.1.0,Phases=1,Linecode=CABBTG02_4_1,Length=0.017000000,Units=km
new line.RML10151574 bus1=BBT3572571.2.0,bus2=RML1060151574.2.0,Phases=1,Linecode=CABBTG02_4_1,Length=0.017000000,Units=km
new line.RML10151752 bus1=BBT2236915.1.2.0,bus2=RML1060151752.1.2.0,Phases=2,Linecode=CABBTG04_4_2,Length=0.017000000,Units=km
new line.RML10151858 bus1=BBT21899887.1.2.0,bus2=RML1060151858.1.2.0,Phases=2,Linecode=CABBTG05_4_2,Length=0.017000000,Units=km
new line.RML10151944 bus1=BBT2871759.1.2.0,bus2=RML1060151944.1.2.0,Phases=2,Linecode=CABBTG05_4_2,Length=0.017000000,Units=km
new line.RML10151963 bus1=BBT3573656.1.2.0,bus2=RML1060151963.1.2.0,Phases=2,Linecode=CABBTG05_4_2,Length=0.017000000,Units=km
new line.RML10151974 bus1=BBT2239904.1.2.0,bus2=RML1060151974.1.2.0,Phases=2,Linecode=CABBTG05_4_2,Length=0.017000000,Units=km
new line.RML10151979 bus1=BBT2798098.1.2.0,bus2=RML1060151979.1.2.0,Phases=2,Linecode=CABBTG05_4_2,Length=0.017000000,Units=km
new line.RML10151983 bus1=BBT2232036.1.2.0,bus2=RML1060151983.1.2.0,Phases=2,Linecode=CABBTG05_4_2,Length=0.017000000,Units=km
new line.RML10152003 bus1=BBT2871724.1.2.0,bus2=RML1060152003.1.2.0,Phases=2,Linecode=CABBTG05_4_2,Length=0.017000000,Units=km
new line.RML10003960 bus1=BBT2324261.1.0,bus2=RML1060003960.1.0,Phases=1,Linecode=CABBTG02_4_1,Length=0.017000000,Units=km
new line.RML10083806 bus1=BBT93145551.1.2.0,bus2=RML1060083806.1.2.0,Phases=2,Linecode=CABBTG05_4_2,Length=0.017000000,Units=km
new line.RML10083842 bus1=BBT28032622.1.2.0,bus2=RML1060083842.1.2.0,Phases=2,Linecode=CABBTG05_4_2,Length=0.017000000,Units=km
new line.RML10083891 bus1=BBT2238658.1.2.0,bus2=RML1060083891.1.2.0,Phases=2,Linecode=CABBTG05_4_2,Length=0.017000000,Units=km
new line.RML10083896 bus1=BBT2231322.1.2.0,bus2=RML1060083896.1.2.0,Phases=2,Linecode=CABBTG05_4_2,Length=0.017000000,Units=km
new line.RML10083909 bus1=BBT2235480.3.0,bus2=RML1060083909.3.0,Phases=1,Linecode=CABBTG01_4_1,Length=0.017000000,Units=km
new line.RML10083912 bus1=BBT2239946.2.0,bus2=RML1060083912.2.0,Phases=1,Linecode=CABBTG01_4_1,Length=0.017000000,Units=km
new line.RML10083940 bus1=BBT4738505.1.2.0,bus2=RML1060083940.1.2.0,Phases=2,Linecode=CABBTG05_4_2,Length=0.017000000,Units=km
new line.RML10085669 bus1=BBT3040004.1.0,bus2=RML1060085669.1.0,Phases=1,Linecode=CABBTG01_4_1,Length=0.017000000,Units=km
new line.RML10086182 bus1=BBT3835946.1.2.0,bus2=RML1060086182.1.2.0,Phases=2,Linecode=CABBTG05_4_2,Length=0.020000000,Units=km
new line.RML10086288 bus1=BBT3533616.2.0,bus2=RML1060086288.2.0,Phases=1,Linecode=CABBTG01_4_1,Length=0.028000000,Units=km
new line.RML10086564 bus1=BBT2325836.1.2.0,bus2=RML1060086564.1.2.0,Phases=2,Linecode=CABBTG05_4_2,Length=0.014000000,Units=km
new line.RML10086871 bus1=BBT2233646.1.2.0,bus2=RML1060086871.1.2.0,Phases=2,Linecode=CABBTG13_4_2,Length=0.013000000,Units=km
new line.RML10086999 bus1=BBT134722268.2.0,bus2=RML1060086999.2.0,Phases=1,Linecode=CABBTG02_4_1,Length=0.012000000,Units=km
new line.RML10087159 bus1=BBT3691179.1.2.0,bus2=RML1060087159.1.2.0,Phases=2,Linecode=CABBTG05_4_2,Length=0.027000000,Units=km
new line.RML10087825 bus1=BBT2231777.1.3.0,bus2=RML1060087825.1.3.0,Phases=2,Linecode=CABBTG05_4_2,Length=0.014000000,Units=km
new line.RML10087828 bus1=BBT2236047.1.2.0,bus2=RML1060087828.1.2.0,Phases=2,Linecode=CABBTG05_4_2,Length=0.014000000,Units=km
new line.RML10087838 bus1=BBT2240296.2.0,bus2=RML1060087838.2.0,Phases=1,Linecode=CABBTG02_4_1,Length=0.007000000,Units=km
new line.RML10087904 bus1=BBT2233464.1.2.3.0,bus2=RML1060087904.1.2.3.0,Phases=3,Linecode=CABBTG06_4_3,Length=0.006000000,Units=km
new line.RML10087907 bus1=BBT148024176.2.0,bus2=RML1060087907.2.0,Phases=1,Linecode=CABBTG02_4_1,Length=0.022000000,Units=km
new line.RML10088086 bus1=BBT122050651.1.2.0,bus2=RML1060088086.1.2.0,Phases=2,Linecode=CABBTG05_4_2,Length=0.009000000,Units=km
new line.RML10088249 bus1=BBT2230867.1.2.0,bus2=RML1060088249.1.2.0,Phases=2,Linecode=CABBTG05_4_2,Length=0.006000000,Units=km
new line.RML10088412 bus1=BBT2871738.2.0,bus2=RML1060088412.2.0,Phases=1,Linecode=CABBTG02_4_1,Length=0.010000000,Units=km
new line.RML10089245 bus1=BBT2238700.1.2.0,bus2=RML1060089245.1.2.0,Phases=2,Linecode=CABBTG05_4_2,Length=0.017000000,Units=km
new line.RML10089430 bus1=BBT122300586.2.0,bus2=RML1060089430.2.0,Phases=1,Linecode=CABBTG02_4_1,Length=0.017000000,Units=km
new line.RML10136172 bus1=BBT2231070.2.0,bus2=RML1060136172.2.0,Phases=1,Linecode=CABBTG02_4_1,Length=0.017000000,Units=km
new line.RML10136256 bus1=BBT2347746.2.0,bus2=RML1060136256.2.0,Phases=1,Linecode=CABBTG02_4_1,Length=0.017000000,Units=km
new line.RML10196921 bus1=BBT4743902.2.0,bus2=RML1060196921.2.0,Phases=1,Linecode=CABBTG02_4_1,Length=0.017000000,Units=km
new line.RML10197071 bus1=BBT28042751.2.0,bus2=RML1060197071.2.0,Phases=1,Linecode=CABBTG02_4_1,Length=0.017000000,Units=km
new line.RML10197297 bus1=BBT28042751.1.2.0,bus2=RML1060197297.1.2.0,Phases=2,Linecode=CABBTG05_4_2,Length=0.017000000,Units=km
new line.RML10197302 bus1=BBT2325920.1.2.0,bus2=RML1060197302.1.2.0,Phases=2,Linecode=CABBTG05_4_2,Length=0.017000000,Units=km
new line.RML10197348 bus1=BBT2323421.1.0,bus2=RML1060197348.1.0,Phases=1,Linecode=CABBTG02_4_1,Length=0.017000000,Units=km
new line.RML10198996 bus1=BBT21880161.1.3.0,bus2=RML1060198996.1.3.0,Phases=2,Linecode=CABBTG05_4_2,Length=0.017000000,Units=km
new line.RML10199053 bus1=BBT2232379.1.2.3.0,bus2=RML1060199053.1.2.3.0,Phases=3,Linecode=CABBTG06_4_3,Length=0.017000000,Units=km
new line.RML10199060 bus1=BBT122239931.1.3.0,bus2=RML1060199060.1.3.0,Phases=2,Linecode=CABBTG05_4_2,Length=0.017000000,Units=km
new line.RML10199119 bus1=BBT2234451.1.2.3.0,bus2=RML1060199119.1.2.3.0,Phases=3,Linecode=CABBTG06_4_3,Length=0.017000000,Units=km
new line.RML10199128 bus1=BBT95404262.1.2.0,bus2=RML1060199128.1.2.0,Phases=2,Linecode=CABBTG05_4_2,Length=0.017000000,Units=km
new line.RML10199141 bus1=BBT2239281.2.0,bus2=RML1060199141.2.0,Phases=1,Linecode=CABBTG02_4_1,Length=0.017000000,Units=km
new line.RML10199149 bus1=BBT2240548.1.0,bus2=RML1060199149.1.0,Phases=1,Linecode=CABBTG02_4_1,Length=0.017000000,Units=km
new line.RML10199694 bus1=BBT28032622.1.2.0,bus2=RML1060199694.1.2.0,Phases=2,Linecode=CABBTG05_4_2,Length=0.017000000,Units=km
new line.RML10200129 bus1=BBT2323729.1.2.0,bus2=RML1060200129.1.2.0,Phases=2,Linecode=CABBTG05_4_2,Length=0.017000000,Units=km
new line.RML10200529 bus1=BBT2323246.1.2.0,bus2=RML1060200529.1.2.0,Phases=2,Linecode=CABBT801_4_2,Length=0.017000000,Units=km
new line.RML10200534 bus1=BBT28041736.2.0,bus2=RML1060200534.2.0,Phases=1,Linecode=CABBTG02_4_1,Length=0.017000000,Units=km
new line.RML10200790 bus1=BBT2238693.1.2.0,bus2=RML1060200790.1.2.0,Phases=2,Linecode=CABBTG05_4_2,Length=0.017000000,Units=km
new line.RML10200805 bus1=BBT3392251.1.2.0,bus2=RML1060200805.1.2.0,Phases=2,Linecode=CABBTG05_4_2,Length=0.017000000,Units=km
new line.RML10201354 bus1=BBT28039454.1.0,bus2=RML1060201354.1.0,Phases=1,Linecode=CABBTG02_4_1,Length=0.017000000,Units=km
new line.RML10203163 bus1=BBT2235928.1.2.0,bus2=RML1060203163.1.2.0,Phases=2,Linecode=CABBTG05_4_2,Length=0.017000000,Units=km
new line.RML10203184 bus1=BBT2241297.1.0,bus2=RML1060203184.1.0,Phases=1,Linecode=CABBTG02_4_1,Length=0.017000000,Units=km
new line.RML10285432 bus1=BBT2236026.1.2.0,bus2=RML1060285432.1.2.0,Phases=2,Linecode=CABBTG05_4_2,Length=0.017000000,Units=km
new line.RML10286335 bus1=BBT148714282.1.2.0,bus2=RML1060286335.1.2.0,Phases=2,Linecode=CABBTG05_4_2,Length=0.017000000,Units=km
new line.RML10286744 bus1=BBT2239260.3.0,bus2=RML1060286744.3.0,Phases=1,Linecode=CABBTG02_4_1,Length=0.017000000,Units=km
new line.RML10286926 bus1=BBT4460815.1.0,bus2=RML1060286926.1.0,Phases=1,Linecode=CABBTG02_4_1,Length=0.017000000,Units=km
new line.RML10286933 bus1=BBT2236712.2.0,bus2=RML1060286933.2.0,Phases=1,Linecode=CABBTG02_4_1,Length=0.017000000,Units=km
new line.RML10286944 bus1=BBT2235242.3.0,bus2=RML1060286944.3.0,Phases=1,Linecode=CABBTG02_4_1,Length=0.017000000,Units=km
new line.RML10287081 bus1=BBT2316967.1.3.0,bus2=RML1060287081.1.3.0,Phases=2,Linecode=CABBTG05_4_2,Length=0.017000000,Units=km
new line.RML10288718 bus1=BBT2323260.1.2.0,bus2=RML1060288718.1.2.0,Phases=2,Linecode=CABBTG05_4_2,Length=0.017000000,Units=km
new line.RML10289466 bus1=BBT2290983.1.0,bus2=RML1060289466.1.0,Phases=1,Linecode=CABBTG02_4_1,Length=0.017000000,Units=km
new line.RML10058402 bus1=BBT122050644.2.0,bus2=RML1060058402.2.0,Phases=1,Linecode=CABBTG01_4_1,Length=0.017000000,Units=km
new line.RML10058413 bus1=BBT3572655.2.0,bus2=RML1060058413.2.0,Phases=1,Linecode=CABBTG02_4_1,Length=0.017000000,Units=km
new line.RML10061934 bus1=BBT4859808.2.0,bus2=RML1060061934.2.0,Phases=1,Linecode=CABBTG02_4_1,Length=0.017000000,Units=km
new line.RML10061977 bus1=BBT2279601.1.2.0,bus2=RML1060061977.1.2.0,Phases=2,Linecode=CABBTG05_4_2,Length=0.017000000,Units=km
new line.RML10063982 bus1=BBT2232274.1.2.0,bus2=RML1060063982.1.2.0,Phases=2,Linecode=CABBTG05_4_2,Length=0.017000000,Units=km
new line.RML10064011 bus1=BBT4454620.1.2.0,bus2=RML1060064011.1.2.0,Phases=2,Linecode=CABBTG04_4_2,Length=0.017000000,Units=km
new line.RML10064016 bus1=BBT2232225.1.3.0,bus2=RML1060064016.1.3.0,Phases=2,Linecode=CABBTG05_4_2,Length=0.017000000,Units=km
new line.RML10064027 bus1=BBT110059945.1.3.0,bus2=RML1060064027.1.3.0,Phases=2,Linecode=CABBTG05_4_2,Length=0.017000000,Units=km
new line.RML10064259 bus1=BBT2233548.2.0,bus2=RML1060064259.2.0,Phases=1,Linecode=CABBTG01_4_1,Length=0.017000000,Units=km
new line.RML10064373 bus1=BBT2238994.1.0,bus2=RML1060064373.1.0,Phases=1,Linecode=CABBTG01_4_1,Length=0.017000000,Units=km
new line.RML10064403 bus1=BBT148713738.1.2.0,bus2=RML1060064403.1.2.0,Phases=2,Linecode=CABBTG05_4_2,Length=0.017000000,Units=km
new line.RML10064421 bus1=BBT86997843.1.2.0,bus2=RML1060064421.1.2.0,Phases=2,Linecode=CABBTG05_4_2,Length=0.017000000,Units=km
new line.RML10064612 bus1=BBT4454599.2.0,bus2=RML1060064612.2.0,Phases=1,Linecode=CABBTG02_4_1,Length=0.017000000,Units=km
new line.RML10066082 bus1=BBT2797678.2.0,bus2=RML1060066082.2.0,Phases=1,Linecode=CABBTG01_4_1,Length=0.017000000,Units=km
new line.RML10066083 bus1=BBT2260260.1.2.3.0,bus2=RML1060066083.1.2.3.0,Phases=3,Linecode=CABBTG06_4_3,Length=0.017000000,Units=km
new line.RML10125863 bus1=BBT3222032.2.0,bus2=RML1060125863.2.0,Phases=1,Linecode=CABBTG01_4_1,Length=0.017000000,Units=km
new line.RML10127693 bus1=BBT2231511.1.2.3.0,bus2=RML1060127693.1.2.3.0,Phases=3,Linecode=CABBTG06_4_3,Length=0.017000000,Units=km
new line.RML10129002 bus1=BBT2347991.2.3.0,bus2=RML1060129002.2.3.0,Phases=2,Linecode=CABBTG05_4_2,Length=0.017000000,Units=km
new line.RML10129013 bus1=BBT2236075.2.0,bus2=RML1060129013.2.0,Phases=1,Linecode=CABBTG02_4_1,Length=0.017000000,Units=km
new line.RML10129020 bus1=BBT2231112.3.0,bus2=RML1060129020.3.0,Phases=1,Linecode=CABBTG02_4_1,Length=0.017000000,Units=km
new line.RML10187404 bus1=BBT2239414.1.3.0,bus2=RML1060187404.1.3.0,Phases=2,Linecode=CABBTG05_4_2,Length=0.017000000,Units=km
new line.RML10187538 bus1=BBT7042793.2.0,bus2=RML1060187538.2.0,Phases=1,Linecode=CABBTG02_4_1,Length=0.017000000,Units=km
new line.RML10187550 bus1=BBT2241941.1.3.0,bus2=RML1060187550.1.3.0,Phases=2,Linecode=CABBTG05_4_2,Length=0.017000000,Units=km
new line.RML10188981 bus1=BBT2235186.1.2.0,bus2=RML1060188981.1.2.0,Phases=2,Linecode=CABBTG05_4_2,Length=0.017000000,Units=km
new line.RML10189079 bus1=BBT7676048.1.2.0,bus2=RML1060189079.1.2.0,Phases=2,Linecode=CABBTG05_4_2,Length=0.017000000,Units=km
new line.RML10189582 bus1=BBT2260274.1.0,bus2=RML1060189582.1.0,Phases=1,Linecode=CABBTG01_4_1,Length=0.017000000,Units=km
new line.RML10189599 bus1=BBT2265160.1.2.0,bus2=RML1060189599.1.2.0,Phases=2,Linecode=CABBTG04_4_2,Length=0.017000000,Units=km
new line.RML10189607 bus1=BBT2279587.2.0,bus2=RML1060189607.2.0,Phases=1,Linecode=CABBTG02_4_1,Length=0.017000000,Units=km
new line.RML10189799 bus1=BBT2242067.3.0,bus2=RML1060189799.3.0,Phases=1,Linecode=CABBTG02_4_1,Length=0.017000000,Units=km
new line.RML10189806 bus1=BBT2238133.1.3.0,bus2=RML1060189806.1.3.0,Phases=2,Linecode=CABBTG05_4_2,Length=0.017000000,Units=km
new line.RML10189811 bus1=BBT2238231.1.0,bus2=RML1060189811.1.0,Phases=1,Linecode=CABBTG02_4_1,Length=0.017000000,Units=km
new line.RML10189816 bus1=BBT92848996.1.3.0,bus2=RML1060189816.1.3.0,Phases=2,Linecode=CABBTG05_4_2,Length=0.017000000,Units=km
new line.RML10189821 bus1=BBT3601383.1.0,bus2=RML1060189821.1.0,Phases=1,Linecode=CABBTG02_4_1,Length=0.017000000,Units=km
new line.RML10189858 bus1=BBT2235816.2.0,bus2=RML1060189858.2.0,Phases=1,Linecode=CABBTG02_4_1,Length=0.017000000,Units=km
new line.RML10189863 bus1=BBT2239141.3.0,bus2=RML1060189863.3.0,Phases=1,Linecode=CABBTG02_4_1,Length=0.017000000,Units=km
new line.RML10189881 bus1=BBT3565655.2.0,bus2=RML1060189881.2.0,Phases=1,Linecode=CABBTG02_4_1,Length=0.017000000,Units=km
new line.RML10189889 bus1=BBT2279657.1.2.0,bus2=RML1060189889.1.2.0,Phases=2,Linecode=CABBTG05_4_2,Length=0.017000000,Units=km
new line.RML10189945 bus1=BBT3573523.2.0,bus2=RML1060189945.2.0,Phases=1,Linecode=CABBTG02_4_1,Length=0.017000000,Units=km
new line.RML10189962 bus1=BBT2235375.1.3.0,bus2=RML1060189962.1.3.0,Phases=2,Linecode=CABBTG04_4_2,Length=0.017000000,Units=km
new line.RML10189964 bus1=BBT21871614.1.2.3.0,bus2=RML1060189964.1.2.3.0,Phases=3,Linecode=CABBTG06_4_3,Length=0.017000000,Units=km
new line.RML10190012 bus1=BBT2236677.2.0,bus2=RML1060190012.2.0,Phases=1,Linecode=CABBTG02_4_1,Length=0.017000000,Units=km
new line.RML10190023 bus1=BBT2237783.2.0,bus2=RML1060190023.2.0,Phases=1,Linecode=CABBTG01_4_1,Length=0.017000000,Units=km
new line.RML10190029 bus1=BBT2306418.2.0,bus2=RML1060190029.2.0,Phases=1,Linecode=CABBTG02_4_1,Length=0.017000000,Units=km
new line.RML10190039 bus1=BBT2240933.1.2.3.0,bus2=RML1060190039.1.2.3.0,Phases=3,Linecode=CABBTG06_4_3,Length=0.017000000,Units=km
new line.RML10190053 bus1=BBT2306516.1.0,bus2=RML1060190053.1.0,Phases=1,Linecode=CABBTG02_4_1,Length=0.017000000,Units=km
new line.RML10190058 bus1=BBT2290983.1.2.0,bus2=RML1060190058.1.2.0,Phases=2,Linecode=CABBTG05_4_2,Length=0.017000000,Units=km
new line.RML10190066 bus1=BBT2239372.2.0,bus2=RML1060190066.2.0,Phases=1,Linecode=CABBTG02_4_1,Length=0.017000000,Units=km
new line.RML10190070 bus1=BBT2237531.2.0,bus2=RML1060190070.2.0,Phases=1,Linecode=CABBTG02_4_1,Length=0.017000000,Units=km
new line.RML10190074 bus1=BBT2265125.1.2.0,bus2=RML1060190074.1.2.0,Phases=2,Linecode=CABBTG05_4_2,Length=0.017000000,Units=km
new line.RML10190087 bus1=BBT122239931.3.0,bus2=RML1060190087.3.0,Phases=1,Linecode=CABBTG02_4_1,Length=0.017000000,Units=km
new line.RML10190096 bus1=BBT2239491.2.3.0,bus2=RML1060190096.2.3.0,Phases=2,Linecode=CABBTG05_4_2,Length=0.017000000,Units=km
new line.RML10191649 bus1=BBT2239491.2.0,bus2=RML1060191649.2.0,Phases=1,Linecode=CABBTG01_4_1,Length=0.017000000,Units=km
new line.RML10191834 bus1=BBT2039907.1.2.3.0,bus2=RML1060191834.1.2.3.0,Phases=3,Linecode=CABBTG06_4_3,Length=0.017000000,Units=km
new line.RML10195102 bus1=BBT2278341.1.2.0,bus2=RML1060195102.1.2.0,Phases=2,Linecode=CABBTG05_4_2,Length=0.017000000,Units=km
new line.RML10236149 bus1=BBT2265048.1.2.0,bus2=RML1060236149.1.2.0,Phases=2,Linecode=CABBTG05_4_2,Length=0.017000000,Units=km
new line.RML10413881 bus1=BBT2940597.1.0,bus2=RML1060413881.1.0,Phases=1,Linecode=CABBTG02_4_1,Length=0.017000000,Units=km
new line.RML10413900 bus1=BBT3691179.1.2.0,bus2=RML1060413900.1.2.0,Phases=2,Linecode=CABBTG05_4_2,Length=0.017000000,Units=km
new line.RML10152007 bus1=BBT4861614.1.2.0,bus2=RML1060152007.1.2.0,Phases=2,Linecode=CABBTG05_4_2,Length=0.017000000,Units=km
new line.RML10152023 bus1=BBT130711296.1.2.0,bus2=RML1060152023.1.2.0,Phases=2,Linecode=CABBTG05_4_2,Length=0.017000000,Units=km
new line.RML10152051 bus1=BBT110061765.1.2.3.0,bus2=RML1060152051.1.2.3.0,Phases=3,Linecode=CABBTG06_4_3,Length=0.017000000,Units=km
new line.RML10152063 bus1=BBT4485021.1.2.0,bus2=RML1060152063.1.2.0,Phases=2,Linecode=CABBTG05_4_2,Length=0.017000000,Units=km
new line.RML10152127 bus1=BBT2231252.1.2.0,bus2=RML1060152127.1.2.0,Phases=2,Linecode=CABBTG05_4_2,Length=0.017000000,Units=km
new line.RML10152399 bus1=BBT2231105.1.2.3.0,bus2=RML1060152399.1.2.3.0,Phases=3,Linecode=CABBTG06_4_3,Length=0.017000000,Units=km
new line.RML10152405 bus1=BBT2234094.1.2.0,bus2=RML1060152405.1.2.0,Phases=2,Linecode=CABBTG05_4_2,Length=0.017000000,Units=km
new line.RML10153010 bus1=BBT2234164.1.2.0,bus2=RML1060153010.1.2.0,Phases=2,Linecode=CABBTG04_4_2,Length=0.017000000,Units=km
new line.RML10153043 bus1=BBT2260288.1.0,bus2=RML1060153043.1.0,Phases=1,Linecode=CABBTG01_4_1,Length=0.017000000,Units=km
new line.RML10153353 bus1=BBT148713738.1.2.0,bus2=RML1060153353.1.2.0,Phases=2,Linecode=CABBTG04_4_2,Length=0.017000000,Units=km
new line.RML10153841 bus1=BBT86997843.2.0,bus2=RML1060153841.2.0,Phases=1,Linecode=CABBTG02_4_1,Length=0.017000000,Units=km
new line.RML10154873 bus1=BBT28041253.1.0,bus2=RML1060154873.1.0,Phases=1,Linecode=CABBTG02_4_1,Length=0.017000000,Units=km
new line.RML10213525 bus1=BBT2235991.1.2.0,bus2=RML1060213525.1.2.0,Phases=2,Linecode=CABBTG05_4_2,Length=0.017000000,Units=km
new line.RML10215587 bus1=BBT2238686.3.0,bus2=RML1060215587.3.0,Phases=1,Linecode=CABBTG02_4_1,Length=0.017000000,Units=km
new line.RML10217719 bus1=BBT3571843.1.0,bus2=RML1060217719.1.0,Phases=1,Linecode=CABBTG02_4_1,Length=0.017000000,Units=km
new line.RML10261678 bus1=BBT2279293.1.2.0,bus2=RML1060261678.1.2.0,Phases=2,Linecode=CABBTG05_4_2,Length=0.017000000,Units=km
new line.RML10262005 bus1=BBT2230846.2.0,bus2=RML1060262005.2.0,Phases=1,Linecode=CABBTG02_4_1,Length=0.017000000,Units=km
new line.RML10262300 bus1=BBT28032776.1.0,bus2=RML1060262300.1.0,Phases=1,Linecode=CABBTG02_4_1,Length=0.017000000,Units=km
new line.RML10263085 bus1=BBT110059588.2.0,bus2=RML1060263085.2.0,Phases=1,Linecode=CABBTG02_4_1,Length=0.017000000,Units=km
new line.RML10267221 bus1=BBT3571948.1.2.0,bus2=RML1060267221.1.2.0,Phases=2,Linecode=CABBTG04_4_2,Length=0.017000000,Units=km
new line.RML10267442 bus1=BBT5641288.1.2.0,bus2=RML1060267442.1.2.0,Phases=2,Linecode=CABBTG05_4_2,Length=0.017000000,Units=km
new line.RML10267448 bus1=BBT5729159.2.0,bus2=RML1060267448.2.0,Phases=1,Linecode=CABBTG02_4_1,Length=0.017000000,Units=km
new line.RML10267460 bus1=BBT2231595.1.2.0,bus2=RML1060267460.1.2.0,Phases=2,Linecode=CABBTG05_4_2,Length=0.017000000,Units=km
new line.RML10267466 bus1=BBT2231595.3.0,bus2=RML1060267466.3.0,Phases=1,Linecode=CABBTG02_4_1,Length=0.017000000,Units=km
new line.RML10267501 bus1=BBT110069885.1.3.0,bus2=RML1060267501.1.3.0,Phases=2,Linecode=CABBTG05_4_2,Length=0.017000000,Units=km
new line.RML10267767 bus1=BBT2237608.1.2.0,bus2=RML1060267767.1.2.0,Phases=2,Linecode=CABBTG05_4_2,Length=0.017000000,Units=km
new line.RML10267781 bus1=BBT28029829.3.0,bus2=RML1060267781.3.0,Phases=1,Linecode=CABBTG02_4_1,Length=0.030000000,Units=km
new line.RML10267798 bus1=BBT4362647.1.0,bus2=RML1060267798.1.0,Phases=1,Linecode=CABBTG02_4_1,Length=0.017000000,Units=km
new line.RML10267824 bus1=BBT4859794.2.3.0,bus2=RML1060267824.2.3.0,Phases=2,Linecode=CABBTG05_4_2,Length=0.017000000,Units=km
new line.RML10330785 bus1=BBT2237643.1.2.3.0,bus2=RML1060330785.1.2.3.0,Phases=3,Linecode=CABBTG06_4_3,Length=0.017000000,Units=km
new line.RML10331452 bus1=BBT2347718.3.0,bus2=RML1060331452.3.0,Phases=1,Linecode=CABBTG02_4_1,Length=0.017000000,Units=km
new line.RML10331653 bus1=BBT2241661.1.0,bus2=RML1060331653.1.0,Phases=1,Linecode=CABBTG02_4_1,Length=0.017000000,Units=km
new line.RML10332535 bus1=BBT2050225.1.2.0,bus2=RML1060332535.1.2.0,Phases=2,Linecode=CABBTG05_4_2,Length=0.017000000,Units=km
new line.RML10374117 bus1=BBT2241304.1.0,bus2=RML1060374117.1.0,Phases=1,Linecode=CABBTG02_4_1,Length=0.017000000,Units=km
new line.RML10374318 bus1=BBT3513771.2.0,bus2=RML1060374318.2.0,Phases=1,Linecode=CABBTG02_4_1,Length=0.017000000,Units=km
new line.RML10374326 bus1=BBT2232617.1.2.0,bus2=RML1060374326.1.2.0,Phases=2,Linecode=CABBTG05_4_2,Length=0.017000000,Units=km
new line.RML10376815 bus1=BBT97780608.1.2.0,bus2=RML1060376815.1.2.0,Phases=2,Linecode=CABBTG05_4_2,Length=0.017000000,Units=km
new line.RML10376926 bus1=BBT3309392.1.2.0,bus2=RML1060376926.1.2.0,Phases=2,Linecode=CABBTG05_4_2,Length=0.017000000,Units=km
new line.RML10376932 bus1=BBT2279713.2.0,bus2=RML1060376932.2.0,Phases=1,Linecode=CABBTG02_4_1,Length=0.017000000,Units=km
new line.RML10377091 bus1=BBT2268198.2.0,bus2=RML1060377091.2.0,Phases=1,Linecode=CABBTG02_4_1,Length=0.017000000,Units=km
new line.RML10377141 bus1=BBT2239855.1.2.0,bus2=RML1060377141.1.2.0,Phases=2,Linecode=CABBTG05_4_2,Length=0.017000000,Units=km
new line.RML10377309 bus1=BBT2319249.1.2.0,bus2=RML1060377309.1.2.0,Phases=2,Linecode=CABBTG05_4_2,Length=0.017000000,Units=km
new line.RML10377412 bus1=BBT2241451.2.0,bus2=RML1060377412.2.0,Phases=1,Linecode=CABBTG02_4_1,Length=0.017000000,Units=km
new line.RML10377682 bus1=BBT2240737.1.2.0,bus2=RML1060377682.1.2.0,Phases=2,Linecode=CABBTG05_4_2,Length=0.017000000,Units=km
new line.RML10377740 bus1=BBT2232085.1.0,bus2=RML1060377740.1.0,Phases=1,Linecode=CABBTG02_4_1,Length=0.017000000,Units=km
new line.RML10377778 bus1=BBT3572305.1.0,bus2=RML1060377778.1.0,Phases=1,Linecode=CABBTG02_4_1,Length=0.017000000,Units=km
new line.RML10377891 bus1=BBT2039011.1.2.3.0,bus2=RML1060377891.1.2.3.0,Phases=3,Linecode=CABBTG07_4_3,Length=0.017000000,Units=km
new line.RML10379790 bus1=BBT122050651.1.0,bus2=RML1060379790.1.0,Phases=1,Linecode=CABBTG02_4_1,Length=0.017000000,Units=km
new line.RML10379838 bus1=BBT2306782.1.0,bus2=RML1060379838.1.0,Phases=1,Linecode=CABBTG02_4_1,Length=0.017000000,Units=km
new line.RML10379844 bus1=BBT4860151.1.0,bus2=RML1060379844.1.0,Phases=1,Linecode=CABBTG02_4_1,Length=0.017000000,Units=km
new line.RML10380490 bus1=BBT3571801.2.0,bus2=RML1060380490.2.0,Phases=1,Linecode=CABBTG02_4_1,Length=0.017000000,Units=km
new line.RML10380499 bus1=BBT2235802.3.0,bus2=RML1060380499.3.0,Phases=1,Linecode=CABBTG02_4_1,Length=0.017000000,Units=km
new line.RML10380516 bus1=BBT148713738.1.2.0,bus2=RML1060380516.1.2.0,Phases=2,Linecode=CABBTG05_4_2,Length=0.017000000,Units=km
new line.RML10438232 bus1=BBT2940597.1.2.0,bus2=RML1060438232.1.2.0,Phases=2,Linecode=CABBTG05_4_2,Length=0.017000000,Units=km
new line.RML10438472 bus1=BBT2279041.1.2.0,bus2=RML1060438472.1.2.0,Phases=2,Linecode=CABBTG05_4_2,Length=0.017000000,Units=km
new line.RML10438519 bus1=BBT28037228.1.2.3.0,bus2=RML1060438519.1.2.3.0,Phases=3,Linecode=CABBTG06_4_3,Length=0.017000000,Units=km
new line.RML10440870 bus1=BBT15961297.1.2.0,bus2=RML1060440870.1.2.0,Phases=2,Linecode=CABBTG05_4_2,Length=0.017000000,Units=km
new line.RML10074404 bus1=BBT2235508.1.2.0,bus2=RML1060074404.1.2.0,Phases=2,Linecode=CABBTG04_4_2,Length=0.017000000,Units=km
new line.RML10076652 bus1=BBT2241479.1.0,bus2=RML1060076652.1.0,Phases=1,Linecode=CABBTG02_4_1,Length=0.017000000,Units=km
new line.RML10076662 bus1=BBT2239204.1.2.0,bus2=RML1060076662.1.2.0,Phases=2,Linecode=CABBTG05_4_2,Length=0.017000000,Units=km
new line.RML10076721 bus1=BBT2260064.1.2.0,bus2=RML1060076721.1.2.0,Phases=2,Linecode=CABBTG05_4_2,Length=0.017000000,Units=km
new line.RML10077601 bus1=BBT110062066.2.0,bus2=RML1060077601.2.0,Phases=1,Linecode=CABBTG02_4_1,Length=0.017000000,Units=km
new line.RML10077608 bus1=BBT2871808.1.2.0,bus2=RML1060077608.1.2.0,Phases=2,Linecode=CABBTG05_4_2,Length=0.017000000,Units=km
new line.RML10077609 bus1=BBT2238658.1.2.3.0,bus2=RML1060077609.1.2.3.0,Phases=3,Linecode=CABBTG11_4_3,Length=0.017000000,Units=km
new line.RML10077610 bus1=BBT18650347.2.0,bus2=RML1060077610.2.0,Phases=1,Linecode=CABBTG02_4_1,Length=0.017000000,Units=km
new line.RML10078099 bus1=BBT2252763.2.0,bus2=RML1060078099.2.0,Phases=1,Linecode=CABBTG02_4_1,Length=0.017000000,Units=km