! manter este comentario para compatibilidade do C#
new circuit.alimIIGU115 bus1=BMT172015269.1.2.3,basekv=13.800000000,pu=1.040000000

