new line.1189045 bus1=BBT1389434.1.2.3.0,bus2=BBT1389427.1.2.3.0,Phases=3,Linecode=BT809_BT809_4_3_4,Length=0.027661000,Units=km
new line.1189052 bus1=BBT1389455.1.2.3.0,bus2=BBT1389448.1.2.3.0,Phases=3,Linecode=BT809_BT809_4_3_4,Length=0.021843000,Units=km
new line.1189059 bus1=BBT1389462.1.2.3.0,bus2=BBT1389434.1.2.3.0,Phases=3,Linecode=BT809_BT809_4_3_4,Length=0.025713000,Units=km
new line.1189066 bus1=BBT1389469.1.2.3.0,bus2=BBT1389455.1.2.3.0,Phases=3,Linecode=BT809_BT809_4_3_4,Length=0.028865000,Units=km
new line.1189073 bus1=BBT1389469.2.3.0,bus2=BBT3431306.2.3.0,Phases=2,Linecode=BT305_BT305_5_2_1,Length=0.004473000,Units=km
new line.1189080 bus1=BBT1389476.1.2.3.0,bus2=BBT1389462.1.2.3.0,Phases=3,Linecode=BT809_BT809_4_3_4,Length=0.008063000,Units=km
new line.1189087 bus1=BBT1389476.1.2.3.0,bus2=BBT1389469.1.2.3.0,Phases=3,Linecode=BT108_BT108_7_3_1,Length=0.025713000,Units=km
new line.1189094 bus1=BBT1389476.1.2.3.0,bus2=BBT3431243.1.2.3.0,Phases=3,Linecode=BT306_BT306_5_3_1,Length=0.003606000,Units=km
new line.1189101 bus1=BBT1389504.1.2.3.0,bus2=BBT1389483.1.2.3.0,Phases=3,Linecode=BT805_BT805_4_3_4,Length=0.033959000,Units=km
new line.1189108 bus1=BBT1389420.1.2.3.0,bus2=BBT1389504.1.2.3.0,Phases=3,Linecode=BT514_BT514_7_3_1,Length=0.000501000,Units=km
new line.1189115 bus1=BBT1389504.1.2.3.0,bus2=BBT1389511.1.2.3.0,Phases=3,Linecode=BT805_BT805_4_3_4,Length=0.032283000,Units=km
new line.1189122 bus1=BBT1389511.1.2.3.0,bus2=BBT1389546.1.2.3.0,Phases=3,Linecode=BT108_BT108_7_3_1,Length=0.035472000,Units=km
new line.1189129 bus1=BBT1389532.1.2.3.0,bus2=BBT1389490.1.2.3.0,Phases=3,Linecode=BT107_BT107_7_3_1,Length=0.023540000,Units=km
new line.1189136 bus1=BBT1389546.1.2.3.0,bus2=BBT1389532.1.2.3.0,Phases=3,Linecode=BT107_BT107_7_3_1,Length=0.006084000,Units=km
new line.1189143 bus1=BBT1389546.1.2.3.0,bus2=BBT1389553.1.2.3.0,Phases=3,Linecode=BT108_BT108_7_3_1,Length=0.004473000,Units=km
new line.1189150 bus1=BBT1389546.1.2.3.0,bus2=BBT1389595.1.2.3.0,Phases=3,Linecode=BT107_BT107_7_3_1,Length=0.025301000,Units=km
new line.1189157 bus1=BBT1389553.1.2.3.0,bus2=BBT1389567.1.2.3.0,Phases=3,Linecode=BT108_BT108_7_3_1,Length=0.021589000,Units=km
new line.1189164 bus1=BBT1389567.1.2.3.0,bus2=BBT1389588.1.2.3.0,Phases=3,Linecode=BT108_BT108_7_3_1,Length=0.021192000,Units=km
new line.1189171 bus1=BBT1389595.1.2.3.0,bus2=BBT1389637.1.2.3.0,Phases=3,Linecode=BT107_BT107_7_3_1,Length=0.028865000,Units=km
new line.1189178 bus1=BBT1389595.1.3.0,bus2=BBT3431194.1.3.0,Phases=2,Linecode=BT305_BT305_5_2_1,Length=0.004001000,Units=km
new line.1189185 bus1=BBT1389637.1.2.3.0,bus2=BBT1389679.1.2.3.0,Phases=3,Linecode=BT107_BT107_7_3_1,Length=0.035174000,Units=km
new line.1189192 bus1=BBT1389679.1.2.3.0,bus2=BBT1389686.1.2.3.0,Phases=3,Linecode=BT107_BT106_7_3_1,Length=0.008486000,Units=km
new line.1189199 bus1=BBT1389679.1.2.3.0,bus2=BBT1389700.1.2.3.0,Phases=3,Linecode=BT107_BT107_7_3_1,Length=0.024518000,Units=km
new line.1189206 bus1=BBT3098008.1.2.3.0,bus2=BBT3098022.1.2.3.0,Phases=3,Linecode=BT107_BT106_7_3_1,Length=0.024189000,Units=km
new line.1189416 bus1=BBT1389952.1.2.3.0,bus2=BBT1389945.1.2.3.0,Phases=3,Linecode=BT803_BT803_4_3_4,Length=0.024044000,Units=km
new line.1189423 bus1=BBT1389959.1.2.3.0,bus2=BBT1389952.1.2.3.0,Phases=3,Linecode=BT803_BT803_4_3_4,Length=0.032576000,Units=km
new line.1189437 bus1=BBT1389973.1.2.3.0,bus2=BBT1389966.1.2.3.0,Phases=3,Linecode=BT108_BT108_7_3_1,Length=0.036500000,Units=km
new line.1189444 bus1=BBT1389980.1.2.3.0,bus2=BBT1389959.1.2.3.0,Phases=3,Linecode=BT803_BT803_4_3_4,Length=0.030679000,Units=km
new line.1189451 bus1=BBT1389980.1.2.3.0,bus2=BBT1389987.1.2.3.0,Phases=3,Linecode=BT108_BT108_7_3_1,Length=0.016126000,Units=km
new line.1189465 bus1=BBT1389987.1.2.3.0,bus2=BBT1389973.1.2.3.0,Phases=3,Linecode=BT108_BT108_7_3_1,Length=0.034369000,Units=km
new line.1189472 bus1=BBT1389994.1.2.3.0,bus2=BBT1389980.1.2.3.0,Phases=3,Linecode=BT803_BT803_4_3_4,Length=0.018250000,Units=km
new line.1189479 bus1=BBT1390001.1.2.3.0,bus2=BBT1389994.1.2.3.0,Phases=3,Linecode=BT803_BT803_4_3_4,Length=0.037487000,Units=km
new line.1189486 bus1=BBT1389938.1.2.3.0,bus2=BBT1390001.1.2.3.0,Phases=3,Linecode=BT514_BT514_7_3_1,Length=0.000501000,Units=km
new line.1189493 bus1=BBT1390001.1.2.3.0,bus2=BBT1390008.1.2.3.0,Phases=3,Linecode=BT803_BT803_4_3_4,Length=0.034529000,Units=km
new line.1189500 bus1=BBT1390008.1.2.3.0,bus2=BBT1390015.1.2.3.0,Phases=3,Linecode=BT803_BT803_4_3_4,Length=0.037487000,Units=km
new line.1189507 bus1=BBT1390015.1.2.3.0,bus2=BBT1390029.1.2.3.0,Phases=3,Linecode=BT803_BT803_4_3_4,Length=0.015299000,Units=km
new line.1189514 bus1=BBT1390029.1.2.3.0,bus2=BBT1390022.1.2.3.0,Phases=3,Linecode=BT108_BT107_7_3_1,Length=0.018441000,Units=km
new line.1189521 bus1=BBT1390029.1.2.3.0,bus2=BBT1390036.1.2.3.0,Phases=3,Linecode=BT803_BT803_4_3_4,Length=0.019237000,Units=km
new line.1189528 bus1=BBT1390036.1.2.3.0,bus2=BBT1390043.1.2.3.0,Phases=3,Linecode=BT803_BT803_4_3_4,Length=0.032561000,Units=km
new line.1189535 bus1=BBT1390043.1.2.3.0,bus2=BBT1390050.1.2.3.0,Phases=3,Linecode=BT803_BT803_4_3_4,Length=0.036500000,Units=km
new line.1189542 bus1=BBT1390050.1.2.3.0,bus2=BBT1390057.1.2.3.0,Phases=3,Linecode=BT803_BT803_4_3_4,Length=0.031404000,Units=km
new line.1189738 bus1=BBT1390274.1.2.3.0,bus2=BBT1390260.1.2.3.0,Phases=3,Linecode=BT108_BT108_7_3_1,Length=0.008247000,Units=km
new line.1189752 bus1=BBT1390281.1.2.3.0,bus2=BBT1390267.1.2.3.0,Phases=3,Linecode=BT107_BT107_7_3_1,Length=0.032252000,Units=km
new line.1189759 bus1=BBT1390288.1.2.3.0,bus2=BBT1390274.1.2.3.0,Phases=3,Linecode=BT108_BT108_7_3_1,Length=0.035174000,Units=km
new line.1189766 bus1=BBT1390295.1.2.3.0,bus2=BBT1390288.1.2.3.0,Phases=3,Linecode=BT108_BT108_7_3_1,Length=0.038643000,Units=km
new line.1189773 bus1=BBT1390253.1.2.3.0,bus2=BBT1390295.1.2.3.0,Phases=3,Linecode=BT513_BT513_7_3_1,Length=0.000501000,Units=km
new line.1189780 bus1=BBT1390295.1.2.3.0,bus2=BBT1390302.1.2.3.0,Phases=3,Linecode=BT108_BT108_7_3_1,Length=0.037487000,Units=km
new line.1189787 bus1=BBT1390302.1.2.3.0,bus2=BBT1390309.1.2.3.0,Phases=3,Linecode=BT803_BT803_4_3_4,Length=0.033380000,Units=km
new line.1189794 bus1=BBT1390309.1.2.3.0,bus2=BBT3431663.1.2.3.0,Phases=3,Linecode=BT108_BT108_7_3_1,Length=0.016126000,Units=km
new line.1189801 bus1=BBT1390309.1.2.3.0,bus2=BBT1390316.1.2.3.0,Phases=3,Linecode=BT108_BT107_7_3_1,Length=0.007281000,Units=km
new line.1189808 bus1=BBT1390309.1.2.3.0,bus2=BBT1390323.1.2.3.0,Phases=3,Linecode=BT803_BT803_4_3_4,Length=0.006326000,Units=km
new line.1189815 bus1=BBT1390316.1.2.3.0,bus2=BBT1390330.1.2.3.0,Phases=3,Linecode=BT108_BT107_7_3_1,Length=0.031404000,Units=km
new line.1190424 bus1=BBT1390911.1.2.3.0,bus2=BBT1390281.1.2.3.0,Phases=3,Linecode=BT107_BT107_7_3_1,Length=0.039323000,Units=km
new line.1190431 bus1=BBT1390911.1.2.3.0,bus2=BBT1390918.1.2.3.0,Phases=3,Linecode=BT809_BT809_4_3_4,Length=0.033380000,Units=km
new line.1190445 bus1=BBT1390925.1.2.3.0,bus2=BBT1390911.1.2.3.0,Phases=3,Linecode=BT809_BT809_4_3_4,Length=0.037859000,Units=km
new line.1190452 bus1=BBT1390932.1.2.3.0,bus2=BBT1390925.1.2.3.0,Phases=3,Linecode=BT803_BT803_4_3_4,Length=0.037660000,Units=km
new line.1190459 bus1=BBT1390904.1.2.3.0,bus2=BBT1390932.1.2.3.0,Phases=3,Linecode=BT309_BT309_7_3_1,Length=0.000501000,Units=km
new line.1190466 bus1=BBT1390932.1.2.3.0,bus2=BBT1390939.1.2.3.0,Phases=3,Linecode=BT803_BT803_4_3_4,Length=0.037660000,Units=km
new line.1171083 bus1=BBT1372305.1.2.3.0,bus2=BBT1372571.1.2.3.0,Phases=3,Linecode=BT809_BT809_4_3_4,Length=0.039462000,Units=km
new line.1171090 bus1=BBT1372312.1.2.3.0,bus2=BBT1372305.1.2.3.0,Phases=3,Linecode=BT809_BT809_4_3_4,Length=0.030268000,Units=km
new line.1171097 bus1=BBT1372319.1.2.3.0,bus2=BBT1372312.1.2.3.0,Phases=3,Linecode=BT809_BT809_4_3_4,Length=0.035359000,Units=km
new line.1171111 bus1=BBT1372333.1.2.3.0,bus2=BBT1372319.1.2.3.0,Phases=3,Linecode=BT809_BT809_4_3_4,Length=0.035359000,Units=km
new line.1171125 bus1=BBT1372340.1.2.3.0,bus2=BBT1372354.1.2.3.0,Phases=3,Linecode=BT803_BT803_4_3_4,Length=0.010051000,Units=km
new line.1171132 bus1=BBT1372340.1.2.3.0,bus2=BBT1372536.1.2.3.0,Phases=3,Linecode=BT809_BT809_4_3_4,Length=0.024189000,Units=km
new line.1171139 bus1=BBT1372354.1.2.3.0,bus2=BBT1372347.1.2.3.0,Phases=3,Linecode=BT809_BT809_4_3_4,Length=0.015813000,Units=km
new line.1171146 bus1=BBT1372354.1.2.3.0,bus2=BBT1372389.1.2.3.0,Phases=3,Linecode=BT803_BT803_4_3_4,Length=0.016126000,Units=km
new line.1171153 bus1=BBT1372361.1.2.3.0,bus2=BBT1372340.1.2.3.0,Phases=3,Linecode=BT803_BT803_4_3_4,Length=0.039853000,Units=km
new line.1171160 bus1=BBT1372298.1.2.3.0,bus2=BBT1372361.1.2.3.0,Phases=3,Linecode=BT309_BT309_7_3_1,Length=0.000501000,Units=km
new line.1171167 bus1=BBT1372361.1.2.3.0,bus2=BBT1372382.1.2.3.0,Phases=3,Linecode=BT803_BT803_4_3_4,Length=0.034485000,Units=km
new line.1171174 bus1=BBT1372368.1.2.3.0,bus2=BBT1372326.1.2.3.0,Phases=3,Linecode=BT107_BT106_7_3_1,Length=0.033380000,Units=km
new line.1171181 bus1=BBT1372375.1.2.3.0,bus2=BBT3644862.1.2.3.0,Phases=3,Linecode=BT809_BT809_4_3_4,Length=0.030367000,Units=km
new line.1171188 bus1=BBT1372382.1.2.3.0,bus2=BBT1372333.1.2.3.0,Phases=3,Linecode=BT809_BT809_4_3_4,Length=0.035132000,Units=km
new line.1171202 bus1=BBT1372382.1.2.3.0,bus2=BBT1372410.1.2.3.0,Phases=3,Linecode=BT803_BT803_4_3_4,Length=0.016157000,Units=km
new line.1171216 bus1=BBT1372382.1.2.3.0,bus2=BBT1372403.1.2.3.0,Phases=3,Linecode=BT809_BT809_4_3_4,Length=0.010442000,Units=km
new line.1171223 bus1=BBT1372403.1.2.3.0,bus2=BBT1372459.1.2.3.0,Phases=3,Linecode=BT809_BT809_4_3_4,Length=0.042430000,Units=km
new line.1171230 bus1=BBT1372403.1.2.3.0,bus2=BBT158502956.1.2.3.0,Phases=3,Linecode=BT809_BT809_4_3_4,Length=0.011706000,Units=km
new line.1171237 bus1=BBT1372410.1.2.3.0,bus2=BBT1372578.1.2.3.0,Phases=3,Linecode=BT803_BT803_4_3_4,Length=0.035738000,Units=km
new line.1171251 bus1=BBT1372424.1.2.3.0,bus2=BBT1372368.1.2.3.0,Phases=3,Linecode=BT107_BT106_7_3_1,Length=0.032252000,Units=km
new line.1171258 bus1=BBT1372424.1.2.3.0,bus2=BBT1372438.1.2.3.0,Phases=3,Linecode=BT809_BT809_4_3_4,Length=0.010199000,Units=km
new line.1171265 bus1=BBT1372424.1.2.3.0,bus2=BBT1372445.1.2.3.0,Phases=3,Linecode=BT803_BT803_4_3_4,Length=0.040166000,Units=km
new line.1171272 bus1=BBT1372431.1.2.3.0,bus2=BBT1372417.1.2.3.0,Phases=3,Linecode=BT803_BT803_4_3_4,Length=0.033529000,Units=km
new line.1171286 bus1=BBT1372438.1.2.3.0,bus2=BBT1372431.1.2.3.0,Phases=3,Linecode=BT803_BT803_4_3_4,Length=0.024354000,Units=km
new line.1171293 bus1=BBT1372438.1.2.3.0,bus2=BBT1372452.1.2.3.0,Phases=3,Linecode=BT803_BT803_4_3_4,Length=0.012371000,Units=km
new line.1171300 bus1=BBT1372438.1.2.3.0,bus2=BBT1372487.1.2.3.0,Phases=3,Linecode=BT809_BT809_4_3_4,Length=0.027169000,Units=km
new line.1171307 bus1=BBT1372445.1.2.3.0,bus2=BBT1372473.1.2.3.0,Phases=3,Linecode=BT809_BT809_4_3_4,Length=0.033529000,Units=km
new line.1171314 bus1=BBT1372452.1.2.3.0,bus2=BBT1372466.1.2.3.0,Phases=3,Linecode=BT803_BT803_4_3_4,Length=0.026573000,Units=km
new line.1171321 bus1=BBT1372459.1.2.3.0,bus2=BBT1372508.1.2.3.0,Phases=3,Linecode=BT809_BT809_4_3_4,Length=0.033544000,Units=km
new line.1171328 bus1=BBT1372466.1.2.3.0,bus2=BBT148889926.1.2.3.0,Phases=3,Linecode=BT803_BT803_4_3_4,Length=0.018030000,Units=km
new line.1171349 bus1=BBT1372480.1.2.3.0,bus2=BBT1372494.1.2.3.0,Phases=3,Linecode=BT803_BT803_4_3_4,Length=0.028463000,Units=km
new line.1171356 bus1=BBT1372487.1.2.3.0,bus2=BBT1372515.1.2.3.0,Phases=3,Linecode=BT809_BT809_4_3_4,Length=0.037487000,Units=km
new line.1171370 bus1=BBT1372494.1.2.0,bus2=BBT1372501.1.2.0,Phases=2,Linecode=BT803_BT803_4_2_4,Length=0.030367000,Units=km
new line.1171398 bus1=BBT1372508.1.2.3.0,bus2=BBT3183499.1.2.3.0,Phases=3,Linecode=BT810_BT810_4_3_4,Length=0.036349000,Units=km
new line.1171461 bus1=BBT1372522.1.2.3.0,bus2=BBT1372564.1.2.3.0,Phases=3,Linecode=BT809_BT809_4_3_4,Length=0.037340000,Units=km
new line.1171468 bus1=BBT1372529.1.2.3.0,bus2=BBT1372522.1.2.3.0,Phases=3,Linecode=BT809_BT809_4_3_4,Length=0.034238000,Units=km
new line.1171475 bus1=BBT1372536.1.2.3.0,bus2=BBT1372529.1.2.3.0,Phases=3,Linecode=BT809_BT809_4_3_4,Length=0.028163000,Units=km
new line.1171482 bus1=BBT1372550.1.2.3.0,bus2=BBT1372543.1.2.3.0,Phases=3,Linecode=BT809_BT809_4_3_4,Length=0.027516000,Units=km
new line.1171489 bus1=BBT1372557.1.2.3.0,bus2=BBT1372550.1.2.3.0,Phases=3,Linecode=BT809_BT809_4_3_4,Length=0.029735000,Units=km
new line.1171496 bus1=BBT1372564.1.2.3.0,bus2=BBT1372557.1.2.3.0,Phases=3,Linecode=BT809_BT809_4_3_4,Length=0.027895000,Units=km
new line.1171503 bus1=BBT1372571.1.2.3.0,bus2=BBT3644855.1.2.3.0,Phases=3,Linecode=BT809_BT809_4_3_4,Length=0.034238000,Units=km
new line.1171517 bus1=BBT1372578.1.2.3.0,bus2=BBT1372424.1.2.3.0,Phases=3,Linecode=BT803_BT803_4_3_4,Length=0.028163000,Units=km
new line.1193077 bus1=BBT1393480.1.2.3.0,bus2=BBT1393473.1.2.3.0,Phases=3,Linecode=BT803_BT803_4_3_4,Length=0.030809000,Units=km
new line.1193084 bus1=BBT1393487.1.2.3.0,bus2=BBT1393480.1.2.3.0,Phases=3,Linecode=BT803_BT803_4_3_4,Length=0.027661000,Units=km
new line.1193091 bus1=BBT1393494.1.2.3.0,bus2=BBT1393487.1.2.3.0,Phases=3,Linecode=BT803_BT803_4_3_4,Length=0.035906000,Units=km
new line.1193098 bus1=BBT1393501.1.2.3.0,bus2=BBT3430319.1.2.3.0,Phases=3,Linecode=BT809_BT809_4_3_4,Length=0.007617000,Units=km
new line.1193105 bus1=BBT1393501.1.2.3.0,bus2=BBT1393494.1.2.3.0,Phases=3,Linecode=BT803_BT803_4_3_4,Length=0.027661000,Units=km
new line.1193112 bus1=BBT1393508.1.2.3.0,bus2=BBT1393501.1.2.3.0,Phases=3,Linecode=BT803_BT803_4_3_4,Length=0.026686000,Units=km
new line.1193119 bus1=BBT1393466.1.2.3.0,bus2=BBT1393508.1.2.3.0,Phases=3,Linecode=BT309_BT309_7_3_1,Length=0.000501000,Units=km
new line.1193126 bus1=BBT1393508.1.2.3.0,bus2=BBT1393515.1.2.3.0,Phases=3,Linecode=BT803_BT803_4_3_4,Length=0.031784000,Units=km
new line.1193133 bus1=BBT1393515.1.2.3.0,bus2=BBT1393522.1.2.3.0,Phases=3,Linecode=BT803_BT803_4_3_4,Length=0.031784000,Units=km
new line.1193658 bus1=BBT1393998.1.2.3.0,bus2=BBT1393991.1.2.3.0,Phases=3,Linecode=BT803_BT803_4_3_4,Length=0.034529000,Units=km
new line.1193665 bus1=BBT1393984.1.2.3.0,bus2=BBT1393998.1.2.3.0,Phases=3,Linecode=BT307_BT307_7_3_1,Length=0.000501000,Units=km
new line.1193672 bus1=BBT1393998.1.2.3.0,bus2=BBT1394005.1.2.3.0,Phases=3,Linecode=BT803_BT803_4_3_4,Length=0.031404000,Units=km
new line.1193686 bus1=BBT1394026.1.2.3.0,bus2=BBT1394019.1.2.3.0,Phases=3,Linecode=BT108_BT107_7_3_1,Length=0.029431000,Units=km
new line.1193693 bus1=BBT1394033.1.2.3.0,bus2=BBT1394026.1.2.3.0,Phases=3,Linecode=BT108_BT107_7_3_1,Length=0.033544000,Units=km
new line.1193700 bus1=BBT1394040.1.2.3.0,bus2=BBT1394033.1.2.3.0,Phases=3,Linecode=BT108_BT107_7_3_1,Length=0.036500000,Units=km
new line.1193707 bus1=BBT1394012.1.2.3.0,bus2=BBT1394040.1.2.3.0,Phases=3,Linecode=BT309_BT309_7_3_1,Length=0.000501000,Units=km
new line.1190473 bus1=BBT1390939.1.2.3.0,bus2=BBT1390953.1.2.3.0,Phases=3,Linecode=BT803_BT803_4_3_4,Length=0.033738000,Units=km
new line.1190480 bus1=BBT1390953.1.2.3.0,bus2=BBT1390946.1.2.3.0,Phases=3,Linecode=BT803_BT803_4_3_4,Length=0.036678000,Units=km
new line.1190487 bus1=BBT1390953.1.2.3.0,bus2=BBT1390960.1.2.3.0,Phases=3,Linecode=BT803_BT803_4_3_4,Length=0.037487000,Units=km
new line.1190781 bus1=BBT1391254.1.2.3.0,bus2=BBT142528950.1.2.3.0,Phases=3,Linecode=BT108_BT108_7_3_1,Length=0.032314000,Units=km
new line.1190795 bus1=BBT1391275.1.2.3.0,bus2=BBT142529944.1.2.3.0,Phases=3,Linecode=BT108_BT108_7_3_1,Length=0.026479000,Units=km
new line.1190802 bus1=BBT3098015.1.2.3.0,bus2=BBT3098008.1.2.3.0,Phases=3,Linecode=BT107_BT106_7_3_1,Length=0.028287000,Units=km
new line.1190809 bus1=BBT3098001.1.2.3.0,bus2=BBT3098015.1.2.3.0,Phases=3,Linecode=BT509_BT509_7_3_1,Length=0.000501000,Units=km
new line.1190816 bus1=BBT3098015.1.2.3.0,bus2=BBT3098036.1.2.3.0,Phases=3,Linecode=BT803_BT803_4_3_4,Length=0.028163000,Units=km
new line.1190823 bus1=BBT1391254.1.2.3.0,bus2=BBT1391310.1.2.3.0,Phases=3,Linecode=BT108_BT107_7_3_1,Length=0.026929000,Units=km
new line.1190830 bus1=BBT3097987.1.2.3.0,bus2=BBT1391254.1.2.3.0,Phases=3,Linecode=BT108_BT108_7_3_1,Length=0.014144000,Units=km
new line.1190837 bus1=BBT3429675.1.2.3.0,bus2=BBT1391261.1.2.3.0,Phases=3,Linecode=BT803_BT803_4_3_4,Length=0.027297000,Units=km
new line.1190844 bus1=BBT1391303.1.2.3.0,bus2=BBT1391275.1.2.3.0,Phases=3,Linecode=BT108_BT108_7_3_1,Length=0.011706000,Units=km
new line.1190851 bus1=BBT3429675.1.2.3.0,bus2=BBT1391282.1.2.3.0,Phases=3,Linecode=BT803_BT803_4_3_4,Length=0.027297000,Units=km
new line.1190858 bus1=BBT1391282.1.2.3.0,bus2=BBT1391289.1.2.3.0,Phases=3,Linecode=BT803_BT803_4_3_4,Length=0.027297000,Units=km
new line.1190865 bus1=BBT1391296.1.2.3.0,bus2=BBT1391317.1.2.3.0,Phases=3,Linecode=BT107_BT106_7_3_1,Length=0.028287000,Units=km
new line.1190872 bus1=BBT1391289.1.2.3.0,bus2=BBT1391303.1.2.3.0,Phases=3,Linecode=BT803_BT803_4_3_4,Length=0.019419000,Units=km
new line.1190879 bus1=BBT1391303.1.2.3.0,bus2=BBT1391296.1.2.3.0,Phases=3,Linecode=BT803_BT803_4_3_4,Length=0.008001000,Units=km
new line.1190886 bus1=BBT1391303.1.2.3.0,bus2=BBT1391331.1.2.3.0,Phases=3,Linecode=BT108_BT108_7_3_1,Length=0.016126000,Units=km
new line.1190893 bus1=BBT1391317.1.2.3.0,bus2=BBT1391324.1.2.3.0,Phases=3,Linecode=BT107_BT106_7_3_1,Length=0.032252000,Units=km
new line.1190935 bus1=BBT1391261.1.2.3.0,bus2=BBT3097987.1.2.3.0,Phases=3,Linecode=BT107_BT108_7_3_1,Length=0.025498000,Units=km
new line.1191418 bus1=BBT1391849.1.2.3.0,bus2=BBT1391842.1.2.3.0,Phases=3,Linecode=BT107_BT106_7_3_1,Length=0.030417000,Units=km
new line.1191425 bus1=BBT1391856.1.2.3.0,bus2=BBT1391849.1.2.3.0,Phases=3,Linecode=BT107_BT106_7_3_1,Length=0.040612000,Units=km
new line.1191432 bus1=BBT1391863.1.2.3.0,bus2=BBT1391856.1.2.3.0,Phases=3,Linecode=BT107_BT106_7_3_1,Length=0.026479000,Units=km
new line.1191439 bus1=BBT1391863.1.2.3.0,bus2=BBT1391870.1.2.3.0,Phases=3,Linecode=BT108_BT107_7_3_1,Length=0.004124000,Units=km
new line.1191446 bus1=BBT1391863.1.2.3.0,bus2=BBT1391884.1.2.3.0,Phases=3,Linecode=BT107_BT106_7_3_1,Length=0.008063000,Units=km
new line.1191453 bus1=BBT1391877.1.2.3.0,bus2=BBT1391863.1.2.3.0,Phases=3,Linecode=BT108_BT107_7_3_1,Length=0.032561000,Units=km
new line.1191460 bus1=BBT1391828.1.2.3.0,bus2=BBT1391877.1.2.3.0,Phases=3,Linecode=BT309_BT309_7_3_1,Length=0.000501000,Units=km
new line.1191467 bus1=BBT1391877.1.2.3.0,bus2=BBT1391891.1.2.3.0,Phases=3,Linecode=BT108_BT107_7_3_1,Length=0.040612000,Units=km
new line.1191474 bus1=BBT1391891.1.2.3.0,bus2=BBT1391898.1.2.3.0,Phases=3,Linecode=BT108_BT107_7_3_1,Length=0.038474000,Units=km
new line.1196773 bus1=BBT1397211.1.2.3.0,bus2=BBT1397197.1.2.3.0,Phases=3,Linecode=BT107_BT106_7_3_1,Length=0.030679000,Units=km
new line.1196780 bus1=BBT1397211.1.2.3.0,bus2=BBT3429556.1.2.3.0,Phases=3,Linecode=BT107_BT106_7_3_1,Length=0.035117000,Units=km
new line.1196787 bus1=BBT1397218.1.2.3.0,bus2=BBT1397211.1.2.3.0,Phases=3,Linecode=BT107_BT106_7_3_1,Length=0.028865000,Units=km
new line.1196794 bus1=BBT1397225.1.2.3.0,bus2=BBT1397204.1.2.3.0,Phases=3,Linecode=BT803_BT803_4_3_4,Length=0.028865000,Units=km
new line.1196801 bus1=BBT1397232.1.2.3.0,bus2=BBT1397218.1.2.3.0,Phases=3,Linecode=BT107_BT106_7_3_1,Length=0.030086000,Units=km
new line.1196808 bus1=BBT1397239.1.2.3.0,bus2=BBT1397232.1.2.3.0,Phases=3,Linecode=BT107_BT106_7_3_1,Length=0.031324000,Units=km
new line.1196815 bus1=BBT1397246.1.2.3.0,bus2=BBT1397239.1.2.3.0,Phases=3,Linecode=BT107_BT106_7_3_1,Length=0.030086000,Units=km
new line.1196822 bus1=BBT1397260.1.2.3.0,bus2=BBT1397225.1.2.3.0,Phases=3,Linecode=BT803_BT803_4_3_4,Length=0.027661000,Units=km
new line.1196829 bus1=BBT1397260.1.2.3.0,bus2=BBT1397246.1.2.3.0,Phases=3,Linecode=BT107_BT106_7_3_1,Length=0.025964000,Units=km
new line.1196836 bus1=BBT1397267.1.2.3.0,bus2=BBT1397253.1.2.3.0,Phases=3,Linecode=BT107_BT106_7_3_1,Length=0.030679000,Units=km
new line.1196843 bus1=BBT1397274.1.2.3.0,bus2=BBT1397260.1.2.3.0,Phases=3,Linecode=BT803_BT803_4_3_4,Length=0.037859000,Units=km
new line.1196850 bus1=BBT1397281.1.2.3.0,bus2=BBT1397267.1.2.3.0,Phases=3,Linecode=BT107_BT106_7_3_1,Length=0.027516000,Units=km
new line.1196857 bus1=BBT1397295.1.2.3.0,bus2=BBT1397288.1.2.3.0,Phases=3,Linecode=BT107_BT106_7_3_1,Length=0.029277000,Units=km
new line.1196864 bus1=BBT1397302.1.2.3.0,bus2=BBT1397281.1.2.3.0,Phases=3,Linecode=BT107_BT106_7_3_1,Length=0.008545000,Units=km
new line.1196871 bus1=BBT1397302.1.2.3.0,bus2=BBT1397295.1.2.3.0,Phases=3,Linecode=BT107_BT106_7_3_1,Length=0.009221000,Units=km
new line.1196878 bus1=BBT1397302.1.2.3.0,bus2=BBT1397344.1.2.3.0,Phases=3,Linecode=BT107_BT106_7_3_1,Length=0.023089000,Units=km
new line.1196885 bus1=BBT1397309.1.2.3.0,bus2=BBT1397302.1.2.3.0,Phases=3,Linecode=BT107_BT106_7_3_1,Length=0.028446000,Units=km
new line.1196892 bus1=BBT1397316.1.2.3.0,bus2=BBT1397309.1.2.3.0,Phases=3,Linecode=BT107_BT106_7_3_1,Length=0.034529000,Units=km
new line.1196899 bus1=BBT1397323.1.2.3.0,bus2=BBT1397316.1.2.3.0,Phases=3,Linecode=BT107_BT106_7_3_1,Length=0.034369000,Units=km
new line.1196906 bus1=BBT1397330.1.2.3.0,bus2=BBT1397274.1.2.3.0,Phases=3,Linecode=BT803_BT803_4_3_4,Length=0.036882000,Units=km
new line.1196913 bus1=BBT1397190.1.2.3.0,bus2=BBT1397330.1.2.3.0,Phases=3,Linecode=BT309_BT309_7_3_1,Length=0.000501000,Units=km
new line.1196920 bus1=BBT1397330.1.2.3.0,bus2=BBT1397351.1.2.3.0,Phases=3,Linecode=BT803_BT803_4_3_4,Length=0.008247000,Units=km
new line.1196927 bus1=BBT1397337.1.2.3.0,bus2=BBT1397323.1.2.3.0,Phases=3,Linecode=BT803_BT803_4_3_4,Length=0.031404000,Units=km
new line.1196934 bus1=BBT1397351.1.2.3.0,bus2=BBT1397337.1.2.3.0,Phases=3,Linecode=BT803_BT803_4_3_4,Length=0.030153000,Units=km
new line.1196941 bus1=BBT1397351.1.2.3.0,bus2=BBT1397358.1.2.3.0,Phases=3,Linecode=BT803_BT803_4_3_4,Length=0.007617000,Units=km
new line.1196948 bus1=BBT1397351.1.2.3.0,bus2=BBT1397365.1.2.3.0,Phases=3,Linecode=BT803_BT803_4_3_4,Length=0.028639000,Units=km
new line.1196955 bus1=BBT1397365.1.2.3.0,bus2=BBT1397372.1.2.3.0,Phases=3,Linecode=BT803_BT803_4_3_4,Length=0.033959000,Units=km
new line.1197074 bus1=BBT1397519.1.2.3.0,bus2=BBT1397512.1.2.3.0,Phases=3,Linecode=BT809_BT809_4_3_4,Length=0.032760000,Units=km
new line.1197081 bus1=BBT1397526.1.2.3.0,bus2=BBT1397519.1.2.3.0,Phases=3,Linecode=BT809_BT809_4_3_4,Length=0.030809000,Units=km
new line.1193714 bus1=BBT1394040.1.2.3.0,bus2=BBT1394061.1.2.3.0,Phases=3,Linecode=BT108_BT107_7_3_1,Length=0.027661000,Units=km
new line.1193721 bus1=BBT1394054.1.2.3.0,bus2=BBT1394047.1.2.3.0,Phases=3,Linecode=BT108_BT107_7_3_1,Length=0.036678000,Units=km
new line.1193728 bus1=BBT1394061.1.2.3.0,bus2=BBT1394068.1.2.3.0,Phases=3,Linecode=BT108_BT107_7_3_1,Length=0.005100000,Units=km
new line.1193735 bus1=BBT1394061.1.2.3.0,bus2=BBT1394075.1.2.3.0,Phases=3,Linecode=BT108_BT107_7_3_1,Length=0.034716000,Units=km
new line.1193742 bus1=BBT1394061.1.2.3.0,bus2=BBT1394082.1.2.3.0,Phases=3,Linecode=BT108_BT107_7_3_1,Length=0.009057000,Units=km
new line.1193749 bus1=BBT1394068.1.2.3.0,bus2=BBT1394054.1.2.3.0,Phases=3,Linecode=BT108_BT107_7_3_1,Length=0.038643000,Units=km
new line.1193756 bus1=BBT1394082.1.2.3.0,bus2=BBT1394089.1.2.3.0,Phases=3,Linecode=BT108_BT107_7_3_1,Length=0.032561000,Units=km
new line.1193763 bus1=BBT1394089.1.2.3.0,bus2=BBT1394096.1.2.3.0,Phases=3,Linecode=BT108_BT107_7_3_1,Length=0.031404000,Units=km
new line.1202233 bus1=BBT1402909.1.2.3.0,bus2=BBT1402916.1.2.3.0,Phases=3,Linecode=BT311_BT311_7_3_1,Length=0.000501000,Units=km
new line.1202247 bus1=BBT1402937.1.2.3.0,bus2=BBT1402930.1.2.3.0,Phases=3,Linecode=BT107_BT106_7_3_1,Length=0.039055000,Units=km
new line.1202254 bus1=BBT1402944.1.2.3.0,bus2=BBT1402937.1.2.3.0,Phases=3,Linecode=BT107_BT107_7_3_1,Length=0.026309000,Units=km
new line.1202261 bus1=BBT1402951.1.2.3.0,bus2=BBT1402944.1.2.3.0,Phases=3,Linecode=BT108_BT108_7_3_1,Length=0.030269000,Units=km
new line.1202268 bus1=BBT1402958.1.2.3.0,bus2=BBT1402951.1.2.3.0,Phases=3,Linecode=BT108_BT107_7_3_1,Length=0.028163000,Units=km
new line.1202275 bus1=BBT1402923.1.2.3.0,bus2=BBT1402958.1.2.3.0,Phases=3,Linecode=BT307_BT307_7_3_1,Length=0.000501000,Units=km
new line.1202282 bus1=BBT1402958.1.2.3.0,bus2=BBT1402979.1.2.3.0,Phases=3,Linecode=BT108_BT107_7_3_1,Length=0.029158000,Units=km
new line.1202289 bus1=BBT1402965.1.2.3.0,bus2=BBT3430060.1.2.3.0,Phases=3,Linecode=BT306_BT301_5_3_1,Length=0.005001000,Units=km
new line.1202296 bus1=BBT1402972.1.2.3.0,bus2=BBT1402965.1.2.3.0,Phases=3,Linecode=BT107_BT107_7_3_1,Length=0.023089000,Units=km
new line.1202303 bus1=BBT1403035.1.2.3.0,bus2=BBT1403042.1.2.3.0,Phases=3,Linecode=BT309_BT309_7_3_1,Length=0.000501000,Units=km
new line.1202310 bus1=BBT1402979.1.2.3.0,bus2=BBT1402986.1.2.3.0,Phases=3,Linecode=BT107_BT107_7_3_1,Length=0.029158000,Units=km
new line.1202317 bus1=BBT1402986.1.2.3.0,bus2=BBT1402972.1.2.3.0,Phases=3,Linecode=BT107_BT107_7_3_1,Length=0.023540000,Units=km
new line.1202324 bus1=BBT1402986.1.2.3.0,bus2=BBT3430109.1.2.3.0,Phases=3,Linecode=BT306_BT301_5_3_1,Length=0.005001000,Units=km
new line.1202660 bus1=BBT1403371.1.2.3.0,bus2=BBT1403364.1.2.3.0,Phases=3,Linecode=BT803_BT803_4_3_4,Length=0.032252000,Units=km
new line.1202667 bus1=BBT1403378.1.2.3.0,bus2=BBT1403371.1.2.3.0,Phases=3,Linecode=BT803_BT803_4_3_4,Length=0.030269000,Units=km
new line.1202674 bus1=BBT1403357.1.2.3.0,bus2=BBT1403378.1.2.3.0,Phases=3,Linecode=BT514_BT514_7_3_1,Length=0.000501000,Units=km
new line.1202681 bus1=BBT1403378.1.2.3.0,bus2=BBT1403385.1.2.3.0,Phases=3,Linecode=BT108_BT107_7_3_1,Length=0.032391000,Units=km
new line.1202688 bus1=BBT1403385.1.2.3.0,bus2=BBT1403392.1.2.3.0,Phases=3,Linecode=BT108_BT107_7_3_1,Length=0.044558000,Units=km
new line.1202695 bus1=BBT1403385.1.2.3.0,bus2=BBT1403399.1.2.3.0,Phases=3,Linecode=BT803_BT803_4_3_4,Length=0.009435000,Units=km
new line.1202702 bus1=BBT1403399.1.2.3.0,bus2=BBT1403406.1.2.3.0,Phases=3,Linecode=BT803_BT803_4_3_4,Length=0.031404000,Units=km
new line.1202709 bus1=BBT1403406.1.2.3.0,bus2=BBT1403413.1.2.3.0,Phases=3,Linecode=BT803_BT803_4_3_4,Length=0.034369000,Units=km
new line.1202716 bus1=BBT1403441.1.2.3.0,bus2=BBT1403427.1.2.3.0,Phases=3,Linecode=BT809_BT809_4_3_4,Length=0.039055000,Units=km
new line.1202723 bus1=BBT1403448.1.2.3.0,bus2=BBT1403434.1.2.3.0,Phases=3,Linecode=BT803_BT803_4_3_4,Length=0.039055000,Units=km
new line.1202730 bus1=BBT1403455.1.2.3.0,bus2=BBT3433287.1.2.3.0,Phases=3,Linecode=BT305_BT305_5_3_1,Length=0.004001000,Units=km
new line.1202737 bus1=BBT1403462.1.2.3.0,bus2=BBT1403455.1.2.3.0,Phases=3,Linecode=BT108_BT107_7_3_1,Length=0.021380000,Units=km
new line.1202744 bus1=BBT1403469.1.2.3.0,bus2=BBT1403462.1.2.3.0,Phases=3,Linecode=BT809_BT809_4_3_4,Length=0.020398000,Units=km
new line.1202751 bus1=BBT1403469.1.2.3.0,bus2=BBT3433252.1.2.3.0,Phases=3,Linecode=BT305_BT305_5_3_1,Length=0.005001000,Units=km
new line.1202758 bus1=BBT1403476.1.2.3.0,bus2=BBT1403441.1.2.3.0,Phases=3,Linecode=BT809_BT809_4_3_4,Length=0.034932000,Units=km
new line.1202765 bus1=BBT1403483.1.2.3.0,bus2=BBT1403448.1.2.3.0,Phases=3,Linecode=BT803_BT803_4_3_4,Length=0.033959000,Units=km
new line.1202772 bus1=BBT1403490.1.2.3.0,bus2=BBT1403469.1.2.3.0,Phases=3,Linecode=BT803_BT803_4_3_4,Length=0.035697000,Units=km
new line.1202779 bus1=BBT1403420.1.2.3.0,bus2=BBT1403490.1.2.3.0,Phases=3,Linecode=BT509_BT509_7_3_1,Length=0.000501000,Units=km
new line.1202786 bus1=BBT1403490.1.2.3.0,bus2=BBT1403504.1.2.3.0,Phases=3,Linecode=BT803_BT803_4_3_4,Length=0.009057000,Units=km
new line.1202793 bus1=BBT1403504.1.2.3.0,bus2=BBT1403476.1.2.3.0,Phases=3,Linecode=BT803_BT803_4_3_4,Length=0.006326000,Units=km
new line.1202800 bus1=BBT1403504.1.2.3.0,bus2=BBT1403518.1.2.3.0,Phases=3,Linecode=BT803_BT803_4_3_4,Length=0.022206000,Units=km
new line.1202807 bus1=BBT1403504.1.2.3.0,bus2=BBT1403602.1.2.3.0,Phases=3,Linecode=BT803_BT803_4_3_4,Length=0.041004000,Units=km
new line.1202814 bus1=BBT1403511.1.2.3.0,bus2=BBT1403532.1.2.3.0,Phases=3,Linecode=BT803_BT803_4_3_4,Length=0.030417000,Units=km
new line.1202821 bus1=BBT1403511.1.2.3.0,bus2=BBT3433154.1.2.3.0,Phases=3,Linecode=BT305_BT305_5_3_1,Length=0.004001000,Units=km
new line.1202828 bus1=BBT1403518.1.2.3.0,bus2=BBT1403483.1.2.3.0,Phases=3,Linecode=BT803_BT803_4_3_4,Length=0.006084000,Units=km
new line.1202835 bus1=BBT1403518.1.2.3.0,bus2=BBT1403511.1.2.3.0,Phases=3,Linecode=BT803_BT803_4_3_4,Length=0.006709000,Units=km
new line.1202842 bus1=BBT1403518.1.2.3.0,bus2=BBT1403616.1.2.3.0,Phases=3,Linecode=BT803_BT803_4_3_4,Length=0.041004000,Units=km
new line.1202849 bus1=BBT1403532.1.2.3.0,bus2=BBT1403546.1.2.3.0,Phases=3,Linecode=BT809_BT809_4_3_4,Length=0.033738000,Units=km
new line.1202856 bus1=BBT1403546.1.2.3.0,bus2=BBT1403560.1.2.3.0,Phases=3,Linecode=BT809_BT809_4_3_4,Length=0.030417000,Units=km
new line.1202863 bus1=BBT1403560.1.2.3.0,bus2=BBT5337266.1.2.3.0,Phases=3,Linecode=BT810_BT810_4_3_4,Length=0.008946000,Units=km
new line.1202870 bus1=BBT1403581.1.2.3.0,bus2=BBT1403574.1.2.3.0,Phases=3,Linecode=BT803_BT803_4_3_4,Length=0.031404000,Units=km
new line.1202877 bus1=BBT1403595.1.2.3.0,bus2=BBT1403581.1.2.3.0,Phases=3,Linecode=BT803_BT803_4_3_4,Length=0.025321000,Units=km
new line.1202884 bus1=BBT1672094.1.2.3.0,bus2=BBT1672101.1.2.3.0,Phases=3,Linecode=BT513_BT513_7_3_1,Length=0.000501000,Units=km
new line.1202891 bus1=BBT1403602.1.2.3.0,bus2=BBT1403609.1.2.3.0,Phases=3,Linecode=BT803_BT803_4_3_4,Length=0.009221000,Units=km
new line.1202898 bus1=BBT1403602.1.2.3.0,bus2=BBT3433182.1.2.3.0,Phases=3,Linecode=BT803_BT803_4_3_4,Length=0.022206000,Units=km