new line.RML10032042 bus1=BBT139605113.1.2.3.0,bus2=RML1060032042.1.2.3.0,Phases=3,Linecode=CABBTG06_4_3,Length=0.017000000,Units=km
new line.RML10034056 bus1=BBT1754708.1.2.0,bus2=RML1060034056.1.2.0,Phases=2,Linecode=CABBTG05_4_2,Length=0.017000000,Units=km
new line.RML10043978 bus1=BBT1453197.1.2.3.0,bus2=RML1060043978.1.2.3.0,Phases=3,Linecode=CABBTG06_4_3,Length=0.017000000,Units=km
new line.RML10044274 bus1=BBT139608627.1.2.0,bus2=RML1060044274.1.2.0,Phases=2,Linecode=CABBTG05_4_2,Length=0.017000000,Units=km
new line.RML10044369 bus1=BBT106589375.1.2.3.0,bus2=RML1060044369.1.2.3.0,Phases=3,Linecode=CABBTG07_4_3,Length=0.006000000,Units=km
new line.RML10044375 bus1=BBT28603740.2.3.0,bus2=RML1060044375.2.3.0,Phases=2,Linecode=CABBT807_4_2,Length=0.017000000,Units=km
new line.RML10044913 bus1=BBT28587591.1.2.0,bus2=RML1060044913.1.2.0,Phases=2,Linecode=CABBTG05_4_2,Length=0.017000000,Units=km
new line.RML10044973 bus1=BBT1414515.1.2.3.0,bus2=RML1060044973.1.2.3.0,Phases=3,Linecode=CABBTG06_4_3,Length=0.017000000,Units=km
new line.RML10044976 bus1=BBT1447849.1.2.3.0,bus2=RML1060044976.1.2.3.0,Phases=3,Linecode=CABBTG06_4_3,Length=0.017000000,Units=km
new line.RML10045142 bus1=BBT106530722.1.2.3.0,bus2=RML1060045142.1.2.3.0,Phases=3,Linecode=CABBTG06_4_3,Length=0.017000000,Units=km
new line.RML10045144 bus1=BBT106589739.2.0,bus2=RML1060045144.2.0,Phases=1,Linecode=CABBTG02_4_1,Length=0.017000000,Units=km
new line.RML10045175 bus1=BBT1428312.2.3.0,bus2=RML1060045175.2.3.0,Phases=2,Linecode=CABBTG05_4_2,Length=0.017000000,Units=km
new line.RML10045758 bus1=BBT106609976.1.3.0,bus2=RML1060045758.1.3.0,Phases=2,Linecode=CABBTG05_4_2,Length=0.011000000,Units=km
new line.RML10045858 bus1=BBT28597440.1.2.0,bus2=RML1060045858.1.2.0,Phases=2,Linecode=CABBTG05_4_2,Length=0.017000000,Units=km
new line.RML10046146 bus1=BBT28597482.1.2.0,bus2=RML1060046146.1.2.0,Phases=2,Linecode=CABBTG04_4_2,Length=0.010000000,Units=km
new line.RML10053898 bus1=BBT118930788.1.2.0,bus2=RML1060053898.1.2.0,Phases=2,Linecode=CABBTG05_4_2,Length=0.015000000,Units=km
new line.RML10053954 bus1=BBT28599127.1.2.0,bus2=RML1060053954.1.2.0,Phases=2,Linecode=CABBTG05_4_2,Length=0.012000000,Units=km
new line.RML10053981 bus1=BBT28601479.1.2.0,bus2=RML1060053981.1.2.0,Phases=2,Linecode=CABBTG05_4_2,Length=0.017000000,Units=km
new line.RML10054046 bus1=BBT106589942.1.2.3.0,bus2=RML1060054046.1.2.3.0,Phases=3,Linecode=CABBTG06_4_3,Length=0.012000000,Units=km
new line.RML10054062 bus1=BBT1714108.1.2.3.0,bus2=RML1060054062.1.2.3.0,Phases=3,Linecode=CABBTG06_4_3,Length=0.015000000,Units=km
new line.RML10054180 bus1=BBT3422157.1.0,bus2=RML1060054180.1.0,Phases=1,Linecode=CABBTG02_4_1,Length=0.012000000,Units=km
new line.RML10054281 bus1=BBT3107997.1.2.3.0,bus2=RML1060054281.1.2.3.0,Phases=3,Linecode=CABBTG06_4_3,Length=0.010000000,Units=km
new line.RML10054421 bus1=BBT103662941.2.3.0,bus2=RML1060054421.2.3.0,Phases=2,Linecode=CABBTG05_4_2,Length=0.017000000,Units=km
new line.RML10055500 bus1=BBT106598055.1.2.3.0,bus2=RML1060055500.1.2.3.0,Phases=3,Linecode=CABBTG12_4_3,Length=0.022000000,Units=km
new line.RML10055523 bus1=BBT106589795.1.2.3.0,bus2=RML1060055523.1.2.3.0,Phases=3,Linecode=CABBTG06_4_3,Length=0.020000000,Units=km
new line.RML10055536 bus1=BBT106556790.1.2.0,bus2=RML1060055536.1.2.0,Phases=2,Linecode=CABBTG05_4_2,Length=0.010000000,Units=km
new line.RML10059283 bus1=BBT148080938.1.2.3.0,bus2=RML1060059283.1.2.3.0,Phases=3,Linecode=CABBTG08_4_3,Length=0.015000000,Units=km
new line.RML10059284 bus1=BBT117607186.1.2.3.0,bus2=RML1060059284.1.2.3.0,Phases=3,Linecode=CABBTG08_4_3,Length=0.015000000,Units=km
new line.RML10061562 bus1=BBT148080938.1.2.3.0,bus2=RML1060061562.1.2.3.0,Phases=3,Linecode=CABBTG08_4_3,Length=0.015000000,Units=km
new line.RML10061563 bus1=BBT148080938.1.2.3.0,bus2=RML1060061563.1.2.3.0,Phases=3,Linecode=CABBTG08_4_3,Length=0.015000000,Units=km
new line.RML10064087 bus1=BBT1444594.1.2.3.0,bus2=RML1060064087.1.2.3.0,Phases=3,Linecode=CABBTG06_4_3,Length=0.010000000,Units=km
new line.RML10064518 bus1=BBT106556566.1.2.3.0,bus2=RML1060064518.1.2.3.0,Phases=3,Linecode=CABBTG06_4_3,Length=0.016000000,Units=km
new line.RML10065494 bus1=BBT106552513.1.0,bus2=RML1060065494.1.0,Phases=1,Linecode=CABBTG02_4_1,Length=0.010000000,Units=km
new line.RML10069925 bus1=BBT103666833.1.2.3.0,bus2=RML1060069925.1.2.3.0,Phases=3,Linecode=CABBTG06_4_3,Length=0.008000000,Units=km
new line.RML10069965 bus1=BBT1386347.1.2.3.0,bus2=RML1060069965.1.2.3.0,Phases=3,Linecode=CABBTG06_4_3,Length=0.017000000,Units=km
new line.RML10071372 bus1=BBT1428851.1.2.0,bus2=RML1060071372.1.2.0,Phases=2,Linecode=CABBTG05_4_2,Length=0.017000000,Units=km
new line.RML10071571 bus1=BBT28576055.1.2.0,bus2=RML1060071571.1.2.0,Phases=2,Linecode=CABBTG05_4_2,Length=0.017000000,Units=km
new line.RML10071618 bus1=BBT1426450.1.0,bus2=RML1060071618.1.0,Phases=1,Linecode=CABBTG02_4_1,Length=0.012000000,Units=km
new line.RML10071864 bus1=BBT1714129.1.2.3.0,bus2=RML1060071864.1.2.3.0,Phases=3,Linecode=CABBTG07_4_3,Length=0.029000000,Units=km
new line.RML10073806 bus1=BBT1414879.1.2.3.0,bus2=RML1060073806.1.2.3.0,Phases=3,Linecode=CABBTG06_4_3,Length=0.012000000,Units=km
new line.RML10074396 bus1=BBT1447226.1.0,bus2=RML1060074396.1.0,Phases=1,Linecode=CABBTG02_4_1,Length=0.013000000,Units=km
new line.RML10076586 bus1=BBT106527992.1.2.3.0,bus2=RML1060076586.1.2.3.0,Phases=3,Linecode=CABBTG10_4_3,Length=0.015000000,Units=km
new line.RML10077693 bus1=BBT106609976.2.3.0,bus2=RML1060077693.2.3.0,Phases=2,Linecode=CABBTG05_4_2,Length=0.016000000,Units=km
new line.RML10082933 bus1=BBT28603159.1.2.0,bus2=RML1060082933.1.2.0,Phases=2,Linecode=CABBTG05_4_2,Length=0.010000000,Units=km
new line.RML10084376 bus1=BBT1389980.1.0,bus2=RML1060084376.1.0,Phases=1,Linecode=CABBTG02_4_1,Length=0.017000000,Units=km
new line.RML10084382 bus1=BBT1444139.1.0,bus2=RML1060084382.1.0,Phases=1,Linecode=CABBTG02_4_1,Length=0.015000000,Units=km
new line.RML10084773 bus1=BBT28601773.1.2.0,bus2=RML1060084773.1.2.0,Phases=2,Linecode=CABBTG05_4_2,Length=0.017000000,Units=km
new line.RML10085255 bus1=BBT1450768.1.2.0,bus2=RML1060085255.1.2.0,Phases=2,Linecode=CABBTG05_4_2,Length=0.010000000,Units=km
new line.RML10085260 bus1=BBT118931845.2.3.0,bus2=RML1060085260.2.3.0,Phases=2,Linecode=CABBTG05_4_2,Length=0.010000000,Units=km
new line.RML10085491 bus1=BBT106589382.1.2.3.0,bus2=RML1060085491.1.2.3.0,Phases=3,Linecode=CABBTG07_4_3,Length=0.015000000,Units=km
new line.RML10085498 bus1=BBT28589530.2.0,bus2=RML1060085498.2.0,Phases=1,Linecode=CABBTG02_4_1,Length=0.012000000,Units=km
new line.RML10085961 bus1=BBT164654829.2.3.0,bus2=RML1060085961.2.3.0,Phases=2,Linecode=CABBTG05_4_2,Length=0.017000000,Units=km
new line.RML10086351 bus1=BBT106589634.1.2.0,bus2=RML1060086351.1.2.0,Phases=2,Linecode=CABBTG05_4_2,Length=0.015000000,Units=km
new line.RML10094107 bus1=BBT1404883.1.2.3.0,bus2=RML1060094107.1.2.3.0,Phases=3,Linecode=CABBTG07_4_3,Length=0.017000000,Units=km
new line.RML10102439 bus1=BBT28599120.1.2.0,bus2=RML1060102439.1.2.0,Phases=2,Linecode=CABBTG05_4_2,Length=0.010000000,Units=km
new line.RML10102554 bus1=BBT28587591.1.0,bus2=RML1060102554.1.0,Phases=1,Linecode=CABBTG02_4_1,Length=0.024000000,Units=km
new line.RML10102568 bus1=BBT103666497.1.2.3.0,bus2=RML1060102568.1.2.3.0,Phases=3,Linecode=CABBTG06_4_3,Length=0.013000000,Units=km
new line.RML10102620 bus1=BBT28603544.2.3.0,bus2=RML1060102620.2.3.0,Phases=2,Linecode=CABBT801_4_2,Length=0.008000000,Units=km
new line.RML10107279 bus1=BBT159945445.2.3.0,bus2=RML1060107279.2.3.0,Phases=2,Linecode=CABBTG04_4_2,Length=0.022000000,Units=km
new line.RML10107701 bus1=BBT1426954.3.0,bus2=RML1060107701.3.0,Phases=1,Linecode=CABBTG02_4_1,Length=0.017000000,Units=km
new line.RML10108632 bus1=BBT28599120.1.2.0,bus2=RML1060108632.1.2.0,Phases=2,Linecode=CABBTG05_4_2,Length=0.008000000,Units=km
new line.RML10108690 bus1=BBT106590614.2.3.0,bus2=RML1060108690.2.3.0,Phases=2,Linecode=CABBTG05_4_2,Length=0.020000000,Units=km
new line.RML10109390 bus1=BBT106553374.1.2.0,bus2=RML1060109390.1.2.0,Phases=2,Linecode=CABBTG13_4_2,Length=0.017000000,Units=km
new line.RML10109490 bus1=BBT1396567.2.3.0,bus2=RML1060109490.2.3.0,Phases=2,Linecode=CABBTG05_4_2,Length=0.007000000,Units=km
new line.RML10110523 bus1=BBT106590719.1.2.3.0,bus2=RML1060110523.1.2.3.0,Phases=3,Linecode=CABBTG06_4_3,Length=0.010000000,Units=km
new line.RML10110795 bus1=BBT106590012.1.2.0,bus2=RML1060110795.1.2.0,Phases=2,Linecode=CABBTG05_4_2,Length=0.015000000,Units=km
new line.RML10111645 bus1=BBT28601472.1.2.3.0,bus2=RML1060111645.1.2.3.0,Phases=3,Linecode=CABBTG06_4_3,Length=0.008000000,Units=km
new line.RML10111656 bus1=BBT28587479.1.2.0,bus2=RML1060111656.1.2.0,Phases=2,Linecode=CABBTG05_4_2,Length=0.008000000,Units=km
new line.RML10111686 bus1=BBT28598910.1.2.0,bus2=RML1060111686.1.2.0,Phases=2,Linecode=CABBTG05_4_2,Length=0.016000000,Units=km
new line.RML10111799 bus1=BBT118931159.2.3.0,bus2=RML1060111799.2.3.0,Phases=2,Linecode=CABBTG05_4_2,Length=0.008000000,Units=km
new line.RML10115995 bus1=BBT106527992.1.2.3.0,bus2=RML1060115995.1.2.3.0,Phases=3,Linecode=CABBTG06_4_3,Length=0.018000000,Units=km
new line.RML10116166 bus1=BBT1381867.1.0,bus2=RML1060116166.1.0,Phases=1,Linecode=CABBTG01_4_1,Length=0.017000000,Units=km
new line.RML10116811 bus1=BBT1394096.1.2.3.0,bus2=RML1060116811.1.2.3.0,Phases=3,Linecode=CABBTG06_4_3,Length=0.018000000,Units=km
new line.RML10119326 bus1=BBT1403756.1.2.3.0,bus2=RML1060119326.1.2.3.0,Phases=3,Linecode=CABBTG06_4_3,Length=0.017000000,Units=km
new line.RML10120048 bus1=BBT5156554.1.2.3.0,bus2=RML1060120048.1.2.3.0,Phases=3,Linecode=CABBTG06_4_3,Length=0.020000000,Units=km
new line.RML10120177 bus1=BBT139605414.1.0,bus2=RML1060120177.1.0,Phases=1,Linecode=CABBTG02_4_1,Length=0.012000000,Units=km
new line.RML10120710 bus1=BBT3107920.2.0,bus2=RML1060120710.2.0,Phases=1,Linecode=CABBTG02_4_1,Length=0.012000000,Units=km
new line.RML10122122 bus1=BBT1423734.1.2.3.0,bus2=RML1060122122.1.2.3.0,Phases=3,Linecode=CABBTG06_4_3,Length=0.010000000,Units=km
new line.RML10123252 bus1=BBT1400235.1.0,bus2=RML1060123252.1.0,Phases=1,Linecode=CABBTG02_4_1,Length=0.010000000,Units=km
new line.RML10123803 bus1=BBT1450845.1.2.3.0,bus2=RML1060123803.1.2.3.0,Phases=3,Linecode=CABBTG07_4_3,Length=0.017000000,Units=km
new line.RML10123867 bus1=BBT164654829.1.3.0,bus2=RML1060123867.1.3.0,Phases=2,Linecode=CABBTG05_4_2,Length=0.017000000,Units=km
new line.RML10123912 bus1=BBT106553395.1.2.3.0,bus2=RML1060123912.1.2.3.0,Phases=3,Linecode=CABBTG06_4_3,Length=0.017000000,Units=km
new line.RML10123940 bus1=BBT28601479.1.2.0,bus2=RML1060123940.1.2.0,Phases=2,Linecode=CABBTG05_4_2,Length=0.017000000,Units=km
new line.RML10132447 bus1=BBT3649832.1.2.3.0,bus2=RML1060132447.1.2.3.0,Phases=3,Linecode=CABBTG08_4_3,Length=0.029000000,Units=km
new line.RML10136439 bus1=BBT1390932.3.0,bus2=RML1060136439.3.0,Phases=1,Linecode=CABBTG02_4_1,Length=0.017000000,Units=km
new line.RML10146778 bus1=BBT106530722.2.0,bus2=RML1060146778.2.0,Phases=1,Linecode=CABBTG02_4_1,Length=0.012000000,Units=km
new line.RML10146828 bus1=BBT28576055.1.2.0,bus2=RML1060146828.1.2.0,Phases=2,Linecode=CABBTG05_4_2,Length=0.015000000,Units=km
new line.RML10148010 bus1=BBT1444566.2.0,bus2=RML1060148010.2.0,Phases=1,Linecode=CABBTG02_4_1,Length=0.008000000,Units=km
new line.RML10148211 bus1=BBT3106338.1.2.0,bus2=RML1060148211.1.2.0,Phases=2,Linecode=CABBTG05_4_2,Length=0.017000000,Units=km
new line.RML10148219 bus1=BBT1389952.1.2.0,bus2=RML1060148219.1.2.0,Phases=2,Linecode=CABBTG05_4_2,Length=0.017000000,Units=km
new line.RML10148310 bus1=BBT1448052.3.0,bus2=RML1060148310.3.0,Phases=1,Linecode=CABBTG02_4_1,Length=0.017000000,Units=km
new line.RML10148318 bus1=BBT1418120.1.2.3.0,bus2=RML1060148318.1.2.3.0,Phases=3,Linecode=CABBTG07_4_3,Length=0.017000000,Units=km
new line.RML10148329 bus1=BBT1450096.1.2.3.0,bus2=RML1060148329.1.2.3.0,Phases=3,Linecode=CABBTG06_4_3,Length=0.017000000,Units=km
new line.RML10148331 bus1=BBT3328609.1.2.3.0,bus2=RML1060148331.1.2.3.0,Phases=3,Linecode=CABBTG06_4_3,Length=0.017000000,Units=km
new line.RML10148334 bus1=BBT1411078.1.2.3.0,bus2=RML1060148334.1.2.3.0,Phases=3,Linecode=CABBTG06_4_3,Length=0.017000000,Units=km
new line.RML10148398 bus1=BBT103662682.1.2.0,bus2=RML1060148398.1.2.0,Phases=2,Linecode=CABBTG05_4_2,Length=0.017000000,Units=km
new line.RML10148416 bus1=BBT103662682.1.2.0,bus2=RML1060148416.1.2.0,Phases=2,Linecode=CABBTG05_4_2,Length=0.017000000,Units=km
new line.RML10148464 bus1=BBT1403448.3.0,bus2=RML1060148464.3.0,Phases=1,Linecode=CABBTG02_4_1,Length=0.017000000,Units=km
new line.RML10148481 bus1=BBT28603572.2.3.0,bus2=RML1060148481.2.3.0,Phases=2,Linecode=CABBTG05_4_2,Length=0.017000000,Units=km
new line.RML10148487 bus1=BBT1444643.2.3.0,bus2=RML1060148487.2.3.0,Phases=2,Linecode=CABBTG05_4_2,Length=0.017000000,Units=km
new line.RML10148490 bus1=BBT1444517.1.2.3.0,bus2=RML1060148490.1.2.3.0,Phases=3,Linecode=CABBTG06_4_3,Length=0.017000000,Units=km
new line.RML10149044 bus1=BBT1444916.2.0,bus2=RML1060149044.2.0,Phases=1,Linecode=CABBTG02_4_1,Length=0.017000000,Units=km
new line.RML10149850 bus1=BBT1428312.1.2.3.0,bus2=RML1060149850.1.2.3.0,Phases=3,Linecode=CABBTG06_4_3,Length=0.017000000,Units=km
new line.RML10150168 bus1=BBT28598707.2.0,bus2=RML1060150168.2.0,Phases=1,Linecode=CABBTG02_4_1,Length=0.017000000,Units=km
new line.RML10150175 bus1=BBT28589530.1.2.0,bus2=RML1060150175.1.2.0,Phases=2,Linecode=CABBTG05_4_2,Length=0.017000000,Units=km
new line.RML10150181 bus1=BBT28598721.1.2.0,bus2=RML1060150181.1.2.0,Phases=2,Linecode=CABBTG05_4_2,Length=0.017000000,Units=km
new line.RML10150187 bus1=BBT28588508.1.2.0,bus2=RML1060150187.1.2.0,Phases=2,Linecode=CABBTG05_4_2,Length=0.017000000,Units=km
new line.RML10150358 bus1=BBT106552849.1.2.0,bus2=RML1060150358.1.2.0,Phases=2,Linecode=CABBTG05_4_2,Length=0.017000000,Units=km
new line.RML10150359 bus1=BBT106552849.2.0,bus2=RML1060150359.2.0,Phases=1,Linecode=CABBTG01_4_1,Length=0.017000000,Units=km
new line.RML10150472 bus1=BBT1394089.3.0,bus2=RML1060150472.3.0,Phases=1,Linecode=CABBTG02_4_1,Length=0.017000000,Units=km
new line.RML10150487 bus1=BBT28597482.1.2.0,bus2=RML1060150487.1.2.0,Phases=2,Linecode=CABBTG05_4_2,Length=0.017000000,Units=km
new line.RML10150505 bus1=BBT28598287.1.2.0,bus2=RML1060150505.1.2.0,Phases=2,Linecode=CABBTG13_4_2,Length=0.017000000,Units=km
new line.RML10150690 bus1=BBT28576055.1.2.0,bus2=RML1060150690.1.2.0,Phases=2,Linecode=CABBTG05_4_2,Length=0.017000000,Units=km
new line.RML10150756 bus1=BBT106556790.1.0,bus2=RML1060150756.1.0,Phases=1,Linecode=CABBTG02_4_1,Length=0.020000000,Units=km
new line.RML10150950 bus1=BBT106589998.2.0,bus2=RML1060150950.2.0,Phases=1,Linecode=CABBTG02_4_1,Length=0.017000000,Units=km
new line.RML10150968 bus1=BBT1389511.1.2.0,bus2=RML1060150968.1.2.0,Phases=2,Linecode=CABBTG05_4_2,Length=0.017000000,Units=km
new line.RML10150979 bus1=BBT1428886.1.0,bus2=RML1060150979.1.0,Phases=1,Linecode=CABBTG02_4_1,Length=0.017000000,Units=km
new line.RML10151003 bus1=BBT1417595.1.2.3.0,bus2=RML1060151003.1.2.3.0,Phases=3,Linecode=CABBTG06_4_3,Length=0.017000000,Units=km
new line.RML10151011 bus1=BBT1777129.1.3.0,bus2=RML1060151011.1.3.0,Phases=2,Linecode=CABBTG05_4_2,Length=0.017000000,Units=km
new line.RML10151033 bus1=BBT118931194.1.0,bus2=RML1060151033.1.0,Phases=1,Linecode=CABBTG02_4_1,Length=0.017000000,Units=km
new line.RML10151210 bus1=BBT1422369.1.2.0,bus2=RML1060151210.1.2.0,Phases=2,Linecode=CABBTG05_4_2,Length=0.017000000,Units=km
new line.RML10165549 bus1=BBT106552408.1.2.0,bus2=RML1060165549.1.2.0,Phases=2,Linecode=CABBTG05_4_2,Length=0.017000000,Units=km
new line.RML10166085 bus1=BBT1450019.1.2.0,bus2=RML1060166085.1.2.0,Phases=2,Linecode=CABBTG05_4_2,Length=0.017000000,Units=km
new line.RML10166335 bus1=BBT106588129.1.2.3.0,bus2=RML1060166335.1.2.3.0,Phases=3,Linecode=CABBTG06_4_3,Length=0.017000000,Units=km
new line.RML10166337 bus1=BBT106589620.1.2.3.0,bus2=RML1060166337.1.2.3.0,Phases=3,Linecode=CABBTG06_4_3,Length=0.017000000,Units=km
new line.RML10178030 bus1=BBT28603138.1.2.0,bus2=RML1060178030.1.2.0,Phases=2,Linecode=CABBTG05_4_2,Length=0.017000000,Units=km
new line.RML10182639 bus1=BBT1406094.1.2.3.0,bus2=RML1060182639.1.2.3.0,Phases=3,Linecode=CABBTG06_4_3,Length=0.017000000,Units=km
new line.RML10183930 bus1=BBT103673980.1.2.3.0,bus2=RML1060183930.1.2.3.0,Phases=3,Linecode=CABBTG06_4_3,Length=0.017000000,Units=km
new line.RML10184150 bus1=BBT3106982.1.2.3.0,bus2=RML1060184150.1.2.3.0,Phases=3,Linecode=CABBTG06_4_3,Length=0.017000000,Units=km
new line.RML10184191 bus1=BBT106532948.1.2.3.0,bus2=RML1060184191.1.2.3.0,Phases=3,Linecode=CABBTG12_4_3,Length=0.017000000,Units=km
new line.RML10184615 bus1=BBT1428375.1.2.0,bus2=RML1060184615.1.2.0,Phases=2,Linecode=CABBTG05_4_2,Length=0.017000000,Units=km
new line.RML10187917 bus1=BBT1391835.1.2.3.0,bus2=RML1060187917.1.2.3.0,Phases=3,Linecode=CABBTG07_4_3,Length=0.017000000,Units=km
new line.RML10187952 bus1=BBT1407319.1.2.3.0,bus2=RML1060187952.1.2.3.0,Phases=3,Linecode=CABBTG06_4_3,Length=0.017000000,Units=km
new line.RML10193155 bus1=BBT1383981.1.2.3.0,bus2=RML1060193155.1.2.3.0,Phases=3,Linecode=CABBTG06_4_3,Length=0.017000000,Units=km
new line.RML10193267 bus1=BBT1447863.1.2.0,bus2=RML1060193267.1.2.0,Phases=2,Linecode=CABBTG05_4_2,Length=0.017000000,Units=km
new line.RML10193304 bus1=BBT169069511.1.2.3.0,bus2=RML1060193304.1.2.3.0,Phases=3,Linecode=CABBTG12_4_3,Length=0.017000000,Units=km
new line.RML10193581 bus1=BBT1391891.1.2.0,bus2=RML1060193581.1.2.0,Phases=2,Linecode=CABBTG05_4_2,Length=0.017000000,Units=km
new line.RML10193760 bus1=BBT118931201.1.3.0,bus2=RML1060193760.1.3.0,Phases=2,Linecode=CABBTG05_4_2,Length=0.017000000,Units=km
new line.RML10193898 bus1=BBT118931173.1.2.0,bus2=RML1060193898.1.2.0,Phases=2,Linecode=CABBTG05_4_2,Length=0.017000000,Units=km
new line.RML10194147 bus1=BBT28598280.1.2.0,bus2=RML1060194147.1.2.0,Phases=2,Linecode=CABBTG05_4_2,Length=0.017000000,Units=km
new line.RML10194252 bus1=BBT139605967.2.3.0,bus2=RML1060194252.2.3.0,Phases=2,Linecode=CABBTG05_4_2,Length=0.017000000,Units=km
new line.RML10194633 bus1=BBT1709887.1.3.0,bus2=RML1060194633.1.3.0,Phases=2,Linecode=CABBTG05_4_2,Length=0.017000000,Units=km
new line.RML10194690 bus1=BBT106552681.1.2.0,bus2=RML1060194690.1.2.0,Phases=2,Linecode=CABBTG05_4_2,Length=0.010000000,Units=km
new line.RML10194696 bus1=BBT106552548.1.2.3.0,bus2=RML1060194696.1.2.3.0,Phases=3,Linecode=CABBTG07_4_3,Length=0.017000000,Units=km
new line.RML10199819 bus1=BBT118931845.1.3.0,bus2=RML1060199819.1.3.0,Phases=2,Linecode=CABBTG05_4_2,Length=0.017000000,Units=km
new line.RML10201510 bus1=BBT139606828.1.2.0,bus2=RML1060201510.1.2.0,Phases=2,Linecode=CABBTG05_4_2,Length=0.017000000,Units=km
new line.RML10209659 bus1=BBT1414858.1.2.3.0,bus2=RML1060209659.1.2.3.0,Phases=3,Linecode=CABBTG06_4_3,Length=0.017000000,Units=km
new line.RML10219203 bus1=BBT6075437.1.2.3.0,bus2=RML1060219203.1.2.3.0,Phases=3,Linecode=CABBTG12_4_3,Length=0.017000000,Units=km
new line.RML10219225 bus1=BBT1438210.1.0,bus2=RML1060219225.1.0,Phases=1,Linecode=CABBTG02_4_1,Length=0.017000000,Units=km
new line.RML10220441 bus1=BBT28598707.1.2.0,bus2=RML1060220441.1.2.0,Phases=2,Linecode=CABBTG05_4_2,Length=0.017000000,Units=km
new line.RML10220449 bus1=BBT1427038.2.3.0,bus2=RML1060220449.2.3.0,Phases=2,Linecode=CABBTG05_4_2,Length=0.017000000,Units=km
new line.RML10220536 bus1=BBT106590614.1.0,bus2=RML1060220536.1.0,Phases=1,Linecode=CABBTG02_4_1,Length=0.017000000,Units=km
new line.RML10220591 bus1=BBT1426534.1.2.0,bus2=RML1060220591.1.2.0,Phases=2,Linecode=CABBTG05_4_2,Length=0.017000000,Units=km
new line.RML10220753 bus1=BBT4037009.1.0,bus2=RML1060220753.1.0,Phases=1,Linecode=CABBTG02_4_1,Length=0.017000000,Units=km
new line.RML10220777 bus1=BBT106556986.1.0,bus2=RML1060220777.1.0,Phases=1,Linecode=CABBTG02_4_1,Length=0.015000000,Units=km
new line.RML10220808 bus1=BBT118931173.1.2.0,bus2=RML1060220808.1.2.0,Phases=2,Linecode=CABBTG05_4_2,Length=0.017000000,Units=km
new line.RML10220969 bus1=BBT106598090.1.2.0,bus2=RML1060220969.1.2.0,Phases=2,Linecode=CABBTG05_4_2,Length=0.017000000,Units=km
new line.RML10220973 bus1=BBT28590216.1.2.0,bus2=RML1060220973.1.2.0,Phases=2,Linecode=CABBTG05_4_2,Length=0.017000000,Units=km
new line.RML10225041 bus1=BBT28605630.1.2.0,bus2=RML1060225041.1.2.0,Phases=2,Linecode=CABBTG05_4_2,Length=0.017000000,Units=km
new line.RML10225357 bus1=BBT1777087.1.2.3.0,bus2=RML1060225357.1.2.3.0,Phases=3,Linecode=CABBTG06_4_3,Length=0.017000000,Units=km
new line.RML10225988 bus1=BBT3108214.1.3.0,bus2=RML1060225988.1.3.0,Phases=2,Linecode=CABBTG05_4_2,Length=0.017000000,Units=km
new line.RML10226213 bus1=BBT28605630.1.2.0,bus2=RML1060226213.1.2.0,Phases=2,Linecode=CABBTG05_4_2,Length=0.017000000,Units=km
new line.RML10229146 bus1=BBT28601542.2.3.0,bus2=RML1060229146.2.3.0,Phases=2,Linecode=CABBT801_4_2,Length=0.017000000,Units=km
new line.RML10229166 bus1=BBT1383960.1.2.0,bus2=RML1060229166.1.2.0,Phases=2,Linecode=CABBTG05_4_2,Length=0.017000000,Units=km
new line.RML10229176 bus1=BBT1709817.1.2.3.0,bus2=RML1060229176.1.2.3.0,Phases=3,Linecode=CABBTG07_4_3,Length=0.017000000,Units=km
new line.RML10229178 bus1=BBT1709817.1.2.3.0,bus2=RML1060229178.1.2.3.0,Phases=3,Linecode=CABBTG07_4_3,Length=0.017000000,Units=km
new line.RML10229202 bus1=BBT28597489.1.2.0,bus2=RML1060229202.1.2.0,Phases=2,Linecode=CABBT801_4_2,Length=0.017000000,Units=km
new line.RML10229288 bus1=BBT149746516.1.2.3.0,bus2=RML1060229288.1.2.3.0,Phases=3,Linecode=CABBTG07_4_3,Length=0.017000000,Units=km
new line.RML10230096 bus1=BBT1397554.1.2.0,bus2=RML1060230096.1.2.0,Phases=2,Linecode=CABBTG05_4_2,Length=0.017000000,Units=km
new line.RML10235873 bus1=BBT139605120.1.0,bus2=RML1060235873.1.0,Phases=1,Linecode=CABBTG02_4_1,Length=0.017000000,Units=km
new line.RML10238222 bus1=BBT139607850.1.2.3.0,bus2=RML1060238222.1.2.3.0,Phases=3,Linecode=CABBTG06_4_3,Length=0.017000000,Units=km
new line.RML10239651 bus1=BBT1383967.1.2.0,bus2=RML1060239651.1.2.0,Phases=2,Linecode=CABBTG04_4_2,Length=0.017000000,Units=km
new line.RML10239655 bus1=BBT149033481.1.2.0,bus2=RML1060239655.1.2.0,Phases=2,Linecode=CABBTG04_4_2,Length=0.017000000,Units=km
new line.RML10239662 bus1=BBT149033481.2.3.0,bus2=RML1060239662.2.3.0,Phases=2,Linecode=CABBTG04_4_2,Length=0.017000000,Units=km
new line.RML10239664 bus1=BBT149033481.1.3.0,bus2=RML1060239664.1.3.0,Phases=2,Linecode=CABBTG04_4_2,Length=0.017000000,Units=km
new line.RML10239669 bus1=BBT149033481.1.3.0,bus2=RML1060239669.1.3.0,Phases=2,Linecode=CABBTG04_4_2,Length=0.017000000,Units=km
new line.RML10239749 bus1=BBT149746566.1.2.3.0,bus2=RML1060239749.1.2.3.0,Phases=3,Linecode=CABBTG06_4_3,Length=0.017000000,Units=km
new line.RML10239750 bus1=BBT149746516.1.2.3.0,bus2=RML1060239750.1.2.3.0,Phases=3,Linecode=CABBTG11_4_3,Length=0.017000000,Units=km
new line.RML10239765 bus1=BBT28605623.1.2.0,bus2=RML1060239765.1.2.0,Phases=2,Linecode=CABBT801_4_2,Length=0.017000000,Units=km
new line.RML10240495 bus1=BBT1403672.1.2.3.0,bus2=RML1060240495.1.2.3.0,Phases=3,Linecode=CABBTG09_4_3,Length=0.017000000,Units=km
new line.RML10240799 bus1=BBT103681274.1.2.3.0,bus2=RML1060240799.1.2.3.0,Phases=3,Linecode=CABBTG06_4_3,Length=0.017000000,Units=km
new line.RML10240839 bus1=BBT1394082.1.0,bus2=RML1060240839.1.0,Phases=1,Linecode=CABBTG02_4_1,Length=0.017000000,Units=km
new line.RML10240842 bus1=BBT28598287.1.0,bus2=RML1060240842.1.0,Phases=1,Linecode=CABBTG01_4_1,Length=0.017000000,Units=km
new line.RML10241036 bus1=BBT1777094.2.3.0,bus2=RML1060241036.2.3.0,Phases=2,Linecode=CABBTG05_4_2,Length=0.017000000,Units=km
new line.RML10241075 bus1=BBT106591405.1.2.3.0,bus2=RML1060241075.1.2.3.0,Phases=3,Linecode=CABBTG06_4_3,Length=0.017000000,Units=km
new line.RML10242151 bus1=BBT139605197.1.0,bus2=RML1060242151.1.0,Phases=1,Linecode=CABBTG02_4_1,Length=0.017000000,Units=km
new line.RML10242675 bus1=BBT103674218.1.2.0,bus2=RML1060242675.1.2.0,Phases=2,Linecode=CABBTG05_4_2,Length=0.017000000,Units=km
new line.RML10243353 bus1=BBT118933035.1.2.3.0,bus2=RML1060243353.1.2.3.0,Phases=3,Linecode=CABBTG06_4_3,Length=0.017000000,Units=km
new line.RML10245027 bus1=BBT118933133.1.2.3.0,bus2=RML1060245027.1.2.3.0,Phases=3,Linecode=CABBTG06_4_3,Length=0.017000000,Units=km
new line.RML10246211 bus1=BBT1406129.1.0,bus2=RML1060246211.1.0,Phases=1,Linecode=CABBTG03_4_1,Length=0.017000000,Units=km
new line.RML10246215 bus1=BBT1404841.2.0,bus2=RML1060246215.2.0,Phases=1,Linecode=CABBTG03_4_1,Length=0.017000000,Units=km
new line.RML10246217 bus1=BBT139608753.1.2.3.0,bus2=RML1060246217.1.2.3.0,Phases=3,Linecode=CABBTG06_4_3,Length=0.017000000,Units=km
new line.RML10246227 bus1=BBT1427045.2.3.0,bus2=RML1060246227.2.3.0,Phases=2,Linecode=CABBTG05_4_2,Length=0.017000000,Units=km
new line.RML10248665 bus1=BBT149746566.1.2.3.0,bus2=RML1060248665.1.2.3.0,Phases=3,Linecode=CABBTG06_4_3,Length=0.017000000,Units=km
new line.RML10248668 bus1=BBT118933133.1.2.3.0,bus2=RML1060248668.1.2.3.0,Phases=3,Linecode=CABBTG06_4_3,Length=0.017000000,Units=km
new line.RML10248896 bus1=BBT106552842.1.2.3.0,bus2=RML1060248896.1.2.3.0,Phases=3,Linecode=CABBTG06_4_3,Length=0.011000000,Units=km
new line.RML10248914 bus1=BBT159946959.2.3.0,bus2=RML1060248914.2.3.0,Phases=2,Linecode=CABBTG05_4_2,Length=0.017000000,Units=km
new line.RML10248973 bus1=BBT28597440.1.2.0,bus2=RML1060248973.1.2.0,Phases=2,Linecode=CABBTG05_4_2,Length=0.017000000,Units=km
new line.RML10248976 bus1=BBT139605197.2.3.0,bus2=RML1060248976.2.3.0,Phases=2,Linecode=CABBTG05_4_2,Length=0.017000000,Units=km
new line.RML10249054 bus1=BBT118931173.1.0,bus2=RML1060249054.1.0,Phases=1,Linecode=CABBTG01_4_1,Length=0.017000000,Units=km
new line.RML10257917 bus1=BBT3106219.1.2.3.0,bus2=RML1060257917.1.2.3.0,Phases=3,Linecode=CABBTG06_4_3,Length=0.017000000,Units=km
new line.RML10257934 bus1=BBT28606344.1.0,bus2=RML1060257934.1.0,Phases=1,Linecode=CABBTG02_4_1,Length=0.017000000,Units=km
new line.RML10257977 bus1=BBT106552443.3.0,bus2=RML1060257977.3.0,Phases=1,Linecode=CABBTG02_4_1,Length=0.017000000,Units=km
new line.RML10258068 bus1=BBT106589634.1.2.0,bus2=RML1060258068.1.2.0,Phases=2,Linecode=CABBTG05_4_2,Length=0.017000000,Units=km
new line.RML10262136 bus1=BBT1445469.3.0,bus2=RML1060262136.3.0,Phases=1,Linecode=CABBTG01_4_1,Length=0.017000000,Units=km
new line.RML10264773 bus1=BBT106552681.1.2.0,bus2=RML1060264773.1.2.0,Phases=2,Linecode=CABBTG05_4_2,Length=0.017000000,Units=km
new line.RML10264844 bus1=BBT1450859.1.2.0,bus2=RML1060264844.1.2.0,Phases=2,Linecode=CABBTG05_4_2,Length=0.017000000,Units=km
new line.RML10270107 bus1=BBT1453533.1.0,bus2=RML1060270107.1.0,Phases=1,Linecode=CABBTG02_4_1,Length=0.017000000,Units=km
new line.RML10270124 bus1=BBT1417070.1.2.3.0,bus2=RML1060270124.1.2.3.0,Phases=3,Linecode=CABBTG06_4_3,Length=0.017000000,Units=km
new line.RML10276172 bus1=BBT106609976.1.2.0,bus2=RML1060276172.1.2.0,Phases=2,Linecode=CABBTG05_4_2,Length=0.017000000,Units=km
new line.RML10276243 bus1=BBT106590614.1.2.3.0,bus2=RML1060276243.1.2.3.0,Phases=3,Linecode=CABBTG06_4_3,Length=0.017000000,Units=km
new line.RML10280858 bus1=BBT6075437.1.2.0,bus2=RML1060280858.1.2.0,Phases=2,Linecode=CABBTG05_4_2,Length=0.017000000,Units=km
new line.RML10295022 bus1=BBT106532584.1.2.3.0,bus2=RML1060295022.1.2.3.0,Phases=3,Linecode=CABBTG12_4_3,Length=0.029000000,Units=km
new line.RML10295477 bus1=BBT118931845.1.0,bus2=RML1060295477.1.0,Phases=1,Linecode=CABBTG02_4_1,Length=0.017000000,Units=km
new line.RML10295513 bus1=BBT28586702.1.2.0,bus2=RML1060295513.1.2.0,Phases=2,Linecode=CABBTG05_4_2,Length=0.017000000,Units=km
new line.RML10295678 bus1=BBT1452084.1.2.3.0,bus2=RML1060295678.1.2.3.0,Phases=3,Linecode=CABBTG06_4_3,Length=0.017000000,Units=km
new line.RML10295823 bus1=BBT1451580.1.3.0,bus2=RML1060295823.1.3.0,Phases=2,Linecode=CABBTG05_4_2,Length=0.017000000,Units=km
new line.RML10319835 bus1=BBT139605120.3.0,bus2=RML1060319835.3.0,Phases=1,Linecode=CABBTG02_4_1,Length=0.017000000,Units=km
new line.RML10320047 bus1=BBT118931201.3.0,bus2=RML1060320047.3.0,Phases=1,Linecode=CABBTG02_4_1,Length=0.017000000,Units=km
new line.RML10320621 bus1=BBT106530337.1.2.0,bus2=RML1060320621.1.2.0,Phases=2,Linecode=CABBTG05_4_2,Length=0.017000000,Units=km
new line.RML10326586 bus1=BBT3107955.1.2.3.0,bus2=RML1060326586.1.2.3.0,Phases=3,Linecode=CABBTG07_4_3,Length=0.017000000,Units=km
new line.RML10326603 bus1=BBT3108130.1.3.0,bus2=RML1060326603.1.3.0,Phases=2,Linecode=CABBTG05_4_2,Length=0.017000000,Units=km
new line.RML10326762 bus1=BBT28603565.2.0,bus2=RML1060326762.2.0,Phases=1,Linecode=CABBTG02_4_1,Length=0.017000000,Units=km
new line.RML10327839 bus1=BBT139608781.1.2.0,bus2=RML1060327839.1.2.0,Phases=2,Linecode=CABBTG05_4_2,Length=0.017000000,Units=km
new line.RML10339098 bus1=BBT1749514.1.2.3.0,bus2=RML1060339098.1.2.3.0,Phases=3,Linecode=CABBT803_4_3,Length=0.017000000,Units=km
new line.RML10341735 bus1=BBT148200355.1.2.0,bus2=RML1060341735.1.2.0,Phases=2,Linecode=CABBTG05_4_2,Length=0.017000000,Units=km
new line.RML10343154 bus1=BBT106552849.2.0,bus2=RML1060343154.2.0,Phases=1,Linecode=CABBTG02_4_1,Length=0.017000000,Units=km
new line.RML10343478 bus1=BBT1450817.1.0,bus2=RML1060343478.1.0,Phases=1,Linecode=CABBTG02_4_1,Length=0.017000000,Units=km
new line.RML10343588 bus1=BBT148198411.1.0,bus2=RML1060343588.1.0,Phases=1,Linecode=CABBTG02_4_1,Length=0.017000000,Units=km
new line.RML10344183 bus1=BBT106532829.1.2.0,bus2=RML1060344183.1.2.0,Phases=2,Linecode=CABBTG05_4_2,Length=0.017000000,Units=km
new line.RML10347431 bus1=BBT1447548.2.3.0,bus2=RML1060347431.2.3.0,Phases=2,Linecode=CABBTG05_4_2,Length=0.017000000,Units=km