! manter este comentario para compatibilidade do C#
new circuit.alimPMSU15 bus1=BMT123994973.1.2.3,basekv=13.800000000,pu=1.040000000