new linecode.tieSwitch nphases=3,r1=0.001,r0=0.001,x1=0,x0=0,c1=0,c0=0,units=km,normamps=400
!new linecode.tieSwitch1 nphases=1,r1=0.001,r0=0.001,x1=0,x0=0,c1=0,c0=0,units=km,normamps=400
new linecode.tieSwitch1 nphases=1,rmatrix=[0.001],xmatrix=[0],units=km,normamps=400

new linecode.CAB nphases=3,r1=0.001,x1=0.001,units=km,normamps=1000
new linecode.CABBT nphases=3,r1=0.001,x1=0.001,units=km,normamps=1000
new linecode.CABMT nphases=3,r1=0.001,x1=0.001,units=km,normamps=1000
new linecode.CABO_FICTICI nphases=3,r1=0.001,x1=0.001,units=km,normamps=100

! Definicoes por meio do Geometry
! MT
New Wiredata.CAB102  GMR=0.00213 DIAM=0.588 RAC=1.550 NormAmps=230.0000 Runits=km radunits=cm gmrunits=m ! 4AWG
New Wiredata.CAB103  GMR=0.00269 DIAM=0.741 RAC=0.9743 NormAmps=185.0000 Runits=km radunits=cm gmrunits=m ! 2AWG
New Wiredata.CAB104  GMR=0.00339 DIAM=0.936 RAC=0.6130 NormAmps=185.0000 Runits=km radunits=cm gmrunits=m ! 
New Wiredata.CAB107  GMR=0.00481 DIAM=1.326 RAC=0.3060 NormAmps=185.0000 Runits=km radunits=cm gmrunits=m ! 
New Wiredata.CAB108  GMR=0.00778 DIAM=1.883 RAC=0.1950 NormAmps=185.0000 Runits=km radunits=cm gmrunits=m ! 
New Wiredata.CAB202  GMR=0.00244 DIAM=0.635 RAC=1.5378 NormAmps=230.0000 Runits=km radunits=cm gmrunits=m ! 
New Wiredata.CAB203  GMR=0.00308 DIAM=0.802 RAC=0.9662 NormAmps=230.0000 Runits=km radunits=cm gmrunits=m ! 
New Wiredata.CAB204  GMR=0.00388 DIAM=1.011 RAC=0.6130 NormAmps=230.0000 Runits=km radunits=cm gmrunits=m ! 
New Wiredata.CAB207  GMR=0.00550 DIAM=1.431 RAC=0.3060 NormAmps=230.0000 Runits=km radunits=cm gmrunits=m ! 
New Wiredata.CAB208  GMR=0.00778 DIAM=1.883 RAC=0.1950 NormAmps=230.0000 Runits=km radunits=cm gmrunits=m ! 
! MT Isolada 
New Wiredata.CABA06  GMR=0.00339 DIAM=1.420 RAC=0.7314 NormAmps=230.0000 Runits=km radunits=cm gmrunits=m ! 
New Wiredata.CABA08  GMR=0.00778 DIAM=2.030 RAC=0.2347 NormAmps=230.0000 Runits=km radunits=cm gmrunits=m ! 
 
New Linegeometry.CAB102 nconds=4,nphases=3,cond=1,Wire=CAB102,x=0.3,h=8.4,units=m,cond=2,Wire=CAB102,x=1,h=8.4,units=m,cond=3,Wire=CAB102,x=1.7,h=8.4,units=m,cond=4,Wire=CAB102,x=0.2 h=7.2,units=m,Reduce=Y
New Linegeometry.CAB103 nconds=4,nphases=3,cond=1,Wire=CAB103,x=0.3,h=8.4,units=m,cond=2,Wire=CAB103,x=1,h=8.4,units=m,cond=3,Wire=CAB103,x=1.7,h=8.4,units=m,cond=4,Wire=CAB102,x=0.2 h=7.2,units=m,Reduce=Y
New Linegeometry.CAB104 nconds=4,nphases=3,cond=1,Wire=CAB104,x=0.3,h=8.4,units=m,cond=2,Wire=CAB104,x=1,h=8.4,units=m,cond=3,Wire=CAB104,x=1.7,h=8.4,units=m,cond=4,Wire=CAB103,x=0.2 h=7.2,units=m,Reduce=Y
New Linegeometry.CAB107 nconds=4,nphases=3,cond=1,Wire=CAB107,x=0.3,h=8.4,units=m,cond=2,Wire=CAB107,x=1,h=8.4,units=m,cond=3,Wire=CAB107,x=1.7,h=8.4,units=m,cond=4,Wire=CAB104,x=0.2 h=7.2,units=m,Reduce=Y
New Linegeometry.CAB108 nconds=4,nphases=3,cond=1,Wire=CAB108,x=0.3,h=8.4,units=m,cond=2,Wire=CAB108,x=1,h=8.4,units=m,cond=3,Wire=CAB108,x=1.7,h=8.4,units=m,cond=4,Wire=CAB104,x=0.2 h=7.2,units=m,Reduce=Y
New Linegeometry.CAB202 nconds=4,nphases=3,cond=1,Wire=CAB202,x=-1.1,h=8.4,units=m,cond=2,Wire=CAB202,x=0.4,h=8.4,units=m,cond=3,Wire=CAB202,x=1.1,h=8.4,units=m,cond=4,Wire=CAB202,x=0.2 h=7.2,units=m,Reduce=Y
New Linegeometry.CAB203 nconds=4,nphases=3,cond=1,Wire=CAB203,x=-1.1,h=8.4,units=m,cond=2,Wire=CAB203,x=0.4,h=8.4,units=m,cond=3,Wire=CAB203,x=1.1,h=8.4,units=m,cond=4,Wire=CAB202,x=0.2 h=7.2,units=m,Reduce=Y
New Linegeometry.CAB204 nconds=4,nphases=3,cond=1,Wire=CAB204,x=-1.1,h=8.4,units=m,cond=2,Wire=CAB204,x=0.4,h=8.4,units=m,cond=3,Wire=CAB204,x=1.1,h=8.4,units=m,cond=4,Wire=CAB203,x=0.2 h=7.2,units=m,Reduce=Y
New Linegeometry.CAB207 nconds=4,nphases=3,cond=1,Wire=CAB207,x=-1.1,h=8.4,units=m,cond=2,Wire=CAB207,x=0.4,h=8.4,units=m,cond=3,Wire=CAB207,x=1.1,h=8.4,units=m,cond=4,Wire=CAB204,x=0.2 h=7.2,units=m,Reduce=Y
New Linegeometry.CAB208 nconds=4,nphases=3,cond=1,Wire=CAB208,x=-1.1,h=8.4,units=m,cond=2,Wire=CAB208,x=0.4,h=8.4,units=m,cond=3,Wire=CAB208,x=1.1,h=8.4,units=m,cond=4,Wire=CAB204,x=0.2 h=7.2,units=m,Reduce=Y
New Linegeometry.CABA06 nconds=4,nphases=3,cond=1,Wire=CABA06,x=0.275,h=8.8,units=m,cond=2,Wire=CABA06,x=0.35,h=8.63,units=m,cond=3,Wire=CABA06,x=0.425,h=8.8,units=m,cond=4,Wire=CAB103,x=0.2 h=6.95,units=m,Reduce=Y
New Linegeometry.CABA08 nconds=4,nphases=3,cond=1,Wire=CABA08,x=0.275,h=8.8,units=m,cond=2,Wire=CABA08,x=0.35,h=8.63,units=m,cond=3,Wire=CABA08,x=0.425,h=8.8,units=m,cond=4,Wire=CAB104,x=0.2 h=6.95,units=m,Reduce=Y

! BT
New Wiredata.CABBT106 GMR=0.00213 DIAM=0.588 RAC=1.5510 NormAmps=185.0000 Runits=km radunits=cm gmrunits=m ! 
New Wiredata.CABBT107 GMR=0.00269 DIAM=0.741 RAC=0.9750  NormAmps=185.0000 Runits=km radunits=cm gmrunits=m ! 
New Wiredata.CABBT108 GMR=0.00339 DIAM=0.936 RAC=0.6130 NormAmps=185.0000 Runits=km radunits=cm gmrunits=m ! 
New Wiredata.CABBT35mm  GMR=0.00270 DIAM=0.700 RAC=0.8680 NormAmps=185.0000 Runits=km radunits=cm gmrunits=m ! 
New Wiredata.CABBT70mm  GMR=0.00377 DIAM=0.980 RAC=0.4430 NormAmps=185.0000 Runits=km radunits=cm gmrunits=m ! 
New Wiredata.CABBT120mm  GMR=0.00497 DIAM=1.290 RAC=0.2530 NormAmps=185.0000 Runits=km radunits=cm gmrunits=m !
New Wiredata.CABBT809  GMR=0.00270 DIAM=0.700 RAC=0.8680 NormAmps=185.0000 Runits=km radunits=cm gmrunits=m ! 
New Wiredata.CABBT810  GMR=0.00270 DIAM=0.700 RAC=0.8680 NormAmps=185.0000 Runits=km radunits=cm gmrunits=m ! 
New Wiredata.CABBT803  GMR=0.00377 DIAM=0.980 RAC=0.4430 NormAmps=185.0000 Runits=km radunits=cm gmrunits=m ! 
New Wiredata.CABBT805  GMR=0.00497 DIAM=1.290 RAC=0.2530 NormAmps=185.0000 Runits=km radunits=cm gmrunits=m !
! BT convencional 
New Linegeometry.CABBT106 nconds=4,nphases=3,cond=1,Wire=CABBT106,x=0.2,h=7,units=m,cond=2,Wire=CABBT106,x=0.2,h=6.8,units=m,cond=3,Wire=CABBT106,x=0.2,h=6.6,units=m,cond=4,Wire=CABBT106,x=0.2 h=7.2,units=m,Reduce=Y
New Linegeometry.CABBT107 nconds=4,nphases=3,cond=1,Wire=CABBT107,x=0.2,h=7,units=m,cond=2,Wire=CABBT107,x=0.2,h=6.8,units=m,cond=3,Wire=CABBT107,x=0.2,h=6.6,units=m,cond=4,Wire=CABBT106,x=0.2 h=7.2,units=m,Reduce=Y
New Linegeometry.CABBT108 nconds=4,nphases=3,cond=1,Wire=CABBT108,x=0.2,h=7,units=m,cond=2,Wire=CABBT108,x=0.2,h=6.8,units=m,cond=3,Wire=CABBT108,x=0.2,h=6.6,units=m,cond=4,Wire=CABBT107,x=0.2 h=7.2,units=m,Reduce=Y
! BT multiplexada
New Linegeometry.CABBT803 nconds=4,nphases=3,cond=1,Wire=CABBT803,x=-0.012,h=7.1,units=m,cond=2,Wire=CABBT803,x=0,h=7.08,units=m,cond=3,Wire=CABBT803,x=0.012,h=7.1,units=m,cond=4,Wire=CABBT803,x=0 h=7.1,units=m,Reduce=Y
New Linegeometry.CABBT805 nconds=4,nphases=3,cond=1,Wire=CABBT805,x=-0.012,h=7.1,units=m,cond=2,Wire=CABBT805,x=0,h=7.08,units=m,cond=3,Wire=CABBT805,x=0.012,h=7.1,units=m,cond=4,Wire=CABBT70MM,x=0 h=7.1,units=m,Reduce=Y
New Linegeometry.CABBT809 nconds=4,nphases=3,cond=1,Wire=CABBT809,x=-0.012,h=7.1,units=m,cond=2,Wire=CABBT809,x=0,h=7.08,units=m,cond=3,Wire=CABBT809,x=0.012,h=7.1,units=m,cond=4,Wire=CABBT809,x=0 h=7.1,units=m,Reduce=Y
New Linegeometry.CABBT810 nconds=4,nphases=3,cond=1,Wire=CABBT810,x=-0.012,h=7.1,units=m,cond=2,Wire=CABBT810,x=0,h=7.08,units=m,cond=3,Wire=CABBT810,x=0.012,h=7.1,units=m,cond=4,Wire=CABBT70MM,x=0 h=7.1,units=m,Reduce=Y
New Linegeometry.CABBT801 nconds=3,nphases=2,cond=1,Wire=CABBT35mm,x=0,h=7.209,units=m,cond=2,Wire=CABBT35mm,x=-0.009,h=7.2,units=m,cond=3,Wire=CABBT35mm,x=0.009,h=7.2,units=m,Reduce=Y
New Linegeometry.CABBT807 nconds=3,nphases=2,cond=1,Wire=CABBT70mm,x=0,h=7.209,units=m,cond=2,Wire=CABBT70mm,x=-0.009,h=7.2,units=m,cond=3,Wire=CABBT70mm,x=0.009,h=7.2,units=m,Reduce=Y
New Linegeometry.CABBT808 nconds=3,nphases=2,cond=1,Wire=CABBT35mm,x=0,h=7.209,units=m,cond=2,Wire=CABBT35mm,x=-0.009,h=7.2,units=m,cond=3,Wire=CABBT70mm,x=0.009,h=7.2,units=m,Reduce=Y

! Linhas 1km
! New line.CAB102 bus1=b1.1.2.3.0,bus2=b2.1.2.3.0,phases=3,BaseFreq=60,Rho=2840,Geometry=CAB102,EarthModel=Carson,Length=1,Units=km
! New line.CAB103 bus1=b1.1.2.3.0,bus2=b2.1.2.3.0,phases=3,BaseFreq=60,Rho=2840,Geometry=CAB103,EarthModel=Carson,Length=1,Units=km
! New line.CAB104 bus1=b1.1.2.3.0,bus2=b2.1.2.3.0,phases=3,BaseFreq=60,Rho=2840,Geometry=CAB104,EarthModel=Carson,Length=1,Units=km
! New line.CAB107 bus1=b1.1.2.3.0,bus2=b2.1.2.3.0,phases=3,BaseFreq=60,Rho=2840,Geometry=CAB107,EarthModel=Carson,Length=1,Units=km
! New line.CAB108 bus1=b1.1.2.3.0,bus2=b2.1.2.3.0,phases=3,BaseFreq=60,Rho=2840,Geometry=CAB108,EarthModel=Carson,Length=1,Units=km
! New line.CAB202 bus1=b1.1.2.3.0,bus2=b2.1.2.3.0,phases=3,BaseFreq=60,Rho=2840,Geometry=CAB202,EarthModel=Carson,Length=1,Units=km
! New line.CAB203 bus1=b1.1.2.3.0,bus2=b2.1.2.3.0,phases=3,BaseFreq=60,Rho=2840,Geometry=CAB203,EarthModel=Carson,Length=1,Units=km
! New line.CAB204 bus1=b1.1.2.3.0,bus2=b2.1.2.3.0,phases=3,BaseFreq=60,Rho=2840,Geometry=CAB204,EarthModel=Carson,Length=1,Units=km
! New line.CAB207 bus1=b1.1.2.3.0,bus2=b2.1.2.3.0,phases=3,BaseFreq=60,Rho=2840,Geometry=CAB207,EarthModel=Carson,Length=1,Units=km
! New line.CAB208 bus1=b1.1.2.3.0,bus2=b2.1.2.3.0,phases=3,BaseFreq=60,Rho=2840,Geometry=CAB208,EarthModel=Carson,Length=1,Units=km
! New line.CABA06 bus1=b1.1.2.3.0,bus2=b2.1.2.3.0,phases=3,BaseFreq=60,Rho=2840,Geometry=CABA06,EarthModel=Carson,Length=1,Units=km
! New line.CABA08 bus1=b1.1.2.3.0,bus2=b2.1.2.3.0,phases=3,BaseFreq=60,Rho=2840,Geometry=CABA08,EarthModel=Carson,Length=1,Units=km
! New line.CABBT106 bus1=b1.1.2.3.0,bus2=b2.1.2.3.0,phases=3,BaseFreq=60,Rho=2840,Geometry=CABBT106,EarthModel=Carson,Length=1,Units=km
! New line.CABBT107 bus1=b1.1.2.3.0,bus2=b2.1.2.3.0,phases=3,BaseFreq=60,Rho=2840,Geometry=CABBT107,EarthModel=Carson,Length=1,Units=km
! New line.CABBT108 bus1=b1.1.2.3.0,bus2=b2.1.2.3.0,phases=3,BaseFreq=60,Rho=2840,Geometry=CABBT108,EarthModel=Carson,Length=1,Units=km
! New line.CABBT803 bus1=b1.1.2.3.0,bus2=b2.1.2.3.0,phases=3,BaseFreq=60,Rho=2840,Geometry=CABBT803,EarthModel=Carson,Length=1,Units=km
! New line.CABBT805 bus1=b1.1.2.3.0,bus2=b2.1.2.3.0,phases=3,BaseFreq=60,Rho=2840,Geometry=CABBT805,EarthModel=Carson,Length=1,Units=km
! New line.CABBT809 bus1=b1.1.2.3.0,bus2=b2.1.2.3.0,phases=3,BaseFreq=60,Rho=2840,Geometry=CABBT809,EarthModel=Carson,Length=1,Units=km
! New line.CABBT810 bus1=b1.1.2.3.0,bus2=b2.1.2.3.0,phases=3,BaseFreq=60,Rho=2840,Geometry=CABBT810,EarthModel=Carson,Length=1,Units=km
! New line.CABBT801 bus1=b1.1.2.3.0,bus2=b2.1.2.3.0,phases=3,BaseFreq=60,Rho=2840,Geometry=CABBT801,EarthModel=Carson,Length=1,Units=km
! New line.CABBT807 bus1=b1.1.2.3.0,bus2=b2.1.2.3.0,phases=3,BaseFreq=60,Rho=2840,Geometry=CABBT807,EarthModel=Carson,Length=1,Units=km
! New line.CABBT808 bus1=b1.1.2.3.0,bus2=b2.1.2.3.0,phases=3,BaseFreq=60,Rho=2840,Geometry=CABBT808,EarthModel=Carson,Length=1,Units=km

! cabos 2016 (base RTP)
new linecode.CAB Nphases=3,r1=0.001,x1=0.001,normamps=1000,units=km
new linecode.CAB001 Nphases=3,r1=2.389,x1=0.5028,normamps=102,units=km
new linecode.CAB004 Nphases=3,r1=0.62,x1=0.4443,normamps=262,units=km
new linecode.CAB005 Nphases=3,r1=0.389,x1=0.4287,normamps=341,units=km
new linecode.CAB006 Nphases=3,r1=0.308,x1=0.4199,normamps=396,units=km
new linecode.CAB007 Nphases=3,r1=0.245,x1=0.4112,normamps=457,units=km
new linecode.CAB008 Nphases=3,r1=0.195,x1=0.4025,normamps=534,units=km
new linecode.CAB009 Nphases=3,r1=0.1433,x1=0.3816,normamps=679,units=km
new linecode.CAB105 Nphases=3,r1=0.486,x1=0.42,normamps=313,units=km
new linecode.CAB106 Nphases=3,r1=0.386,x1=0.4113,normamps=366,units=km
new linecode.CAB107 Nphases=3,r1=0.306,x1=0.4237,normamps=425,units=km
new linecode.CAB108 Nphases=3,r1=0.195,x1=0.4277,normamps=576,units=km
new linecode.CAB201 Nphases=3,r1=2.469,x1=0.507,normamps=113,units=km
new linecode.CAB205 Nphases=3,r1=0.486,x1=0.4876,normamps=317,units=km
new linecode.CAB206 Nphases=3,r1=0.386,x1=0.4753,normamps=371,units=km
new linecode.CAB208 Nphases=3,r1=0.195,x1=0.4165,normamps=586,units=km
new linecode.CAB401 Nphases=3,r1=0.9282,x1=0.1562,normamps=136,units=km
new linecode.CAB402 Nphases=3,r1=0.6694,x1=0.148,normamps=116,units=km
new linecode.CAB403 Nphases=3,r1=0.4002,x1=0.228,normamps=149,units=km
new linecode.CAB404 Nphases=3,r1=0.2078,x1=0.141,normamps=375,units=km
new linecode.CAB601 Nphases=3,r1=1.0994,x1=0.166,normamps=116,units=km
new linecode.CAB602 Nphases=3,r1=0.6913,x1=0.151,normamps=151,units=km
new linecode.CAB603 Nphases=3,r1=0.5484,x1=0.145,normamps=171,units=km
new linecode.CAB604 Nphases=3,r1=0.2924,x1=0.133,normamps=243,units=km
new linecode.CAB605 Nphases=3,r1=0.2094,x1=0.124,normamps=293,units=km
new linecode.CAB606 Nphases=3,r1=0.3453,x1=0.139,normamps=222,units=km
new linecode.CAB607 Nphases=3,r1=0.1474,x1=0.119,normamps=356,units=km
new linecode.CAB608 Nphases=3,r1=0.0996,x1=0.112,normamps=439,units=km
new linecode.CAB610 Nphases=3,r1=0.289,x1=0.1409,normamps=238,units=km
new linecode.CAB611 Nphases=3,r1=0.1004,x1=0.1201,normamps=457,units=km
new linecode.CAB901 Nphases=3,r1=0.991,x1=0.17,normamps=120,units=km
new linecode.CAB903 Nphases=3,r1=0.506,x1=0.15,normamps=180,units=km
new linecode.CAB904 Nphases=3,r1=0.289,x1=0.117,normamps=295,units=km
new linecode.CAB906 Nphases=3,r1=0.143,x1=0.13,normamps=425,units=km
new linecode.CAB907 Nphases=3,r1=0.188,x1=0.106,normamps=386,units=km
new linecode.CAB907_3_3 Nphases=3,r1=0.188,x1=0.106,normamps=386,units=km
new linecode.CABA01 Nphases=3,r1=1.0161,x1=0.4679,normamps=150,units=km
new linecode.CABA02 Nphases=3,r1=0.6387,x1=0.4505,normamps=210,units=km
new linecode.CABA03 Nphases=3,r1=0.3182,x1=0.4237,normamps=325,units=km
new linecode.CABA04 Nphases=3,r1=0.1997,x1=0.4026,normamps=420,units=km
new linecode.CABA05 Nphases=3,r1=0.9566,x1=0.4665,normamps=189,units=km
new linecode.CABA07 Nphases=3,r1=0.3894,x1=0.2786,normamps=344,units=km
new linecode.CABA09 Nphases=3,r1=0.5147,x1=0.15,normamps=180,units=km
new linecode.CABA10 Nphases=3,r1=0.2944,x1=0.14,normamps=251,units=km
new linecode.CABA11 Nphases=3,r1=0.3184,x1=0.4025,normamps=425,units=km
new linecode.CABA12 Nphases=3,r1=0.1464,x1=0.13,normamps=425,units=km
new linecode.CABBT Nphases=3,r1=0.001,x1=0.001,normamps=1000,units=km
new linecode.CABBT001 Nphases=3,r1=3.754,x1=0.42106,normamps=33,units=km
new linecode.CABBT002 Nphases=3,r1=1.138,x1=0.39834,normamps=70,units=km
new linecode.CABBT003 Nphases=3,r1=2.389,x1=0.37504,normamps=76,units=km
new linecode.CABBT004 Nphases=3,r1=0.78,x1=0.37908,normamps=93,units=km
new linecode.CABBT006 Nphases=3,r1=0.984,x1=0.3634,normamps=136,units=km
new linecode.CABBT008 Nphases=3,r1=0.389,x1=0.32431,normamps=252,units=km
new linecode.CABBT009 Nphases=3,r1=0.308,x1=0.31543,normamps=293,units=km
new linecode.CABBT010 Nphases=3,r1=0.245,x1=0.29889,normamps=338,units=km
new linecode.CABBT011 Nphases=3,r1=0.195,x1=0.29792,normamps=394,units=km
new linecode.CABBT012 Nphases=3,r1=0.1433,x1=0.2763,normamps=496,units=km
new linecode.CABBT101 Nphases=3,r1=6.40252,x1=0.40416,normamps=48,units=km
new linecode.CABBT102 Nphases=3,r1=4.04087,x1=0.39834,normamps=64,units=km
new linecode.CABBT103 Nphases=3,r1=2.469,x1=0.35814,normamps=81,units=km
new linecode.CABBT105 Nphases=3,r1=1.229,x1=0.3377,normamps=101,units=km
new linecode.CABBT1061 Nphases=3,r1=1.551,x1=1.361,normamps=111,units=km
new linecode.CABBT1071 Nphases=3,r1=0.975,x1=0.857,normamps=149,units=km
new linecode.CABBT109 Nphases=3,r1=0.486,x1=0.31543,normamps=230,units=km
new linecode.CABBT110 Nphases=3,r1=0.386,x1=0.29889,normamps=270,units=km
new linecode.CABBT111 Nphases=3,r1=0.306,x1=0.29792,normamps=314,units=km
new linecode.CABBT112 Nphases=3,r1=0.195,x1=0.2763,normamps=425,units=km
new linecode.CABBT201 Nphases=3,r1=6.4147,x1=0.40416,normamps=25,units=km
new linecode.CABBT202 Nphases=3,r1=4.02616,x1=0.40354,normamps=33,units=km
new linecode.CABBT203 Nphases=3,r1=2.11523,x1=0.36218,normamps=82,units=km
new linecode.CABBT204 Nphases=3,r1=2.469,x1=0.40267,normamps=84,units=km
new linecode.CABBT205 Nphases=3,r1=1.229,x1=0.39606,normamps=101,units=km
new linecode.CABBT206 Nphases=3,r1=1.551,x1=0.3465,normamps=112,units=km
new linecode.CABBT209 Nphases=3,r1=0.486,x1=0.38337,normamps=233,units=km
new linecode.CABBT210 Nphases=3,r1=0.386,x1=0.28199,normamps=294,units=km
new linecode.CABBT211 Nphases=3,r1=0.306,x1=0.34793,normamps=318,units=km
new linecode.CABBT212 Nphases=3,r1=0.195,x1=0.2594,normamps=432,units=km
new linecode.CABBT301 Nphases=3,r1=3.9216,x1=0.15779,normamps=61,units=km
new linecode.CABBT302 Nphases=3,r1=1.23,x1=0.12896,normamps=70,units=km
new linecode.CABBT305 Nphases=3,r1=1.6022,x1=0.13368,normamps=109,units=km
new linecode.CABBT306 Nphases=3,r1=0.9282,x1=0.13177,normamps=145,units=km
new linecode.CABBT309 Nphases=3,r1=0.3208,x1=0.12075,normamps=298,units=km
new linecode.CABBT310 Nphases=3,r1=0.24259,x1=0.10148,normamps=345,units=km
new linecode.CABBT311 Nphases=3,r1=0.2078,x1=0.11286,normamps=400,units=km
new linecode.CABBT312 Nphases=3,r1=0.12098,x1=0.12477,normamps=500,units=km
new linecode.CABBT314 Nphases=3,r1=0.08595,x1=0.11988,normamps=789,units=km
new linecode.CABBT318 Nphases=3,r1=0.1115,x1=0.11998,normamps=660,units=km
new linecode.CABBT502 Nphases=3,r1=4.0404,x1=0.14767,normamps=64,units=km
new linecode.CABBT504 Nphases=3,r1=2.5427,x1=0.13522,normamps=85,units=km
new linecode.CABBT512 Nphases=3,r1=0.3184,x1=0.1164,normamps=390,units=km
new linecode.CABBT515 Nphases=3,r1=0.1464,x1=0.12053,normamps=186,units=km
new linecode.CABBT516 Nphases=3,r1=0.267,x1=0.11909,normamps=272,units=km
new linecode.CABBT520 Nphases=3,r1=0.188,x1=0.0461,normamps=512,units=km
new linecode.CABBT804 Nphases=3,r1=0.53226,x1=0.08001,normamps=180,units=km
new linecode.CABBT806 Nphases=3,r1=0.22639,x1=0.08652,normamps=225,units=km
new linecode.CABBT8111 Nphases=3,r1=2.1716,x1=0.0821,normamps=95,units=km
new linecode.CABBT812 Nphases=3,r1=1.4418,x1=0.0889,normamps=108,units=km
new linecode.CABBT815 Nphases=3,r1=2.29487,x1=0.08214,normamps=82,units=km
new linecode.CABBTH01 Nphases=3,r1=1.934,x1=0.001,normamps=125,units=km
new linecode.CABBTH02 Nphases=3,r1=0.001,x1=0.001,normamps=125,units=km
new linecode.CABBTH03 Nphases=3,r1=3.2358,x1=1.3755,normamps=125,units=km
new linecode.CABC01 Nphases=3,r1=18.325,x1=0.001,normamps=37,units=km
new linecode.CABD01 Nphases=3,r1=16.07,x1=0.001,normamps=1000,units=km
new linecode.CABD02 Nphases=3,r1=16.07,x1=0.001,normamps=1000,units=km
new linecode.CABD021 Nphases=3,r1=15.2665,x1=0.001,normamps=1000,units=km
new linecode.CABD03 Nphases=3,r1=16.07,x1=0.001,normamps=37,units=km
new linecode.CABF01 Nphases=3,r1=0.001,x1=0.001,normamps=1000,units=km
new linecode.CABI01 Nphases=3,r1=0.001,x1=0.001,normamps=270,units=km
new linecode.CABI02 Nphases=3,r1=0.001,x1=0.001,normamps=432,units=km
new linecode.CABMT Nphases=3,r1=0.001,x1=0.001,normamps=1000,units=km
new linecode.CABO_FICTICI Nphases=3,r1=0.001,x1=0.001,normamps=100,units=km


new linecode.BT001_BT001_7_2_1 Nphases=2,r1=3.92161,x1=0.42106,units=km,normamps=42.9
new linecode.BT001_BT001_7_3_1 Nphases=3,r1=3.92161,x1=0.42106,units=km,normamps=42.9
new linecode.BT001_BT101_7_2_1 Nphases=2,r1=3.92161,x1=0.42106,units=km,normamps=42.9
new linecode.BT001_BT108_7_2_1 Nphases=2,r1=3.92161,x1=0.42106,units=km,normamps=42.9
new linecode.BT001_BT108_7_3_1 Nphases=3,r1=3.92161,x1=0.42106,units=km,normamps=42.9
new linecode.BT001_BT501_7_2_1 Nphases=2,r1=3.92161,x1=0.42106,units=km,normamps=42.9
new linecode.BT002_BT001_7_2_1 Nphases=2,r1=2.5303,x1=0.39834,units=km,normamps=91
new linecode.BT002_BT002_7_2_1 Nphases=2,r1=2.5303,x1=0.39834,units=km,normamps=91
new linecode.BT002_BT002_7_3_1 Nphases=3,r1=2.5303,x1=0.39834,units=km,normamps=91
new linecode.BT003_BT003_7_2_1 Nphases=2,r1=1.5896,x1=0.37504,units=km,normamps=98.8
new linecode.BT004_BT004_7_2_1 Nphases=2,r1=1.22784,x1=0.37908,units=km,normamps=120.9
new linecode.BT004_BT004_7_3_1 Nphases=3,r1=1.22784,x1=0.37908,units=km,normamps=120.9
new linecode.BT004_BT007_7_3_1 Nphases=3,r1=1.22784,x1=0.37908,units=km,normamps=120.9
new linecode.BT005_BT003_7_2_1 Nphases=2,r1=0.77257,x1=0.3546,units=km,normamps=131.3
new linecode.BT005_BT003_7_3_1 Nphases=3,r1=0.77257,x1=0.3546,units=km,normamps=131.3
new linecode.BT005_BT005_7_1_1 Nphases=1,r1=0.77257,x1=0.3546,units=km,normamps=131.3
new linecode.BT005_BT005_7_2_1 Nphases=2,r1=0.77257,x1=0.3546,units=km,normamps=131.3
new linecode.BT005_BT005_7_3_1 Nphases=3,r1=0.77257,x1=0.3546,units=km,normamps=131.3
new linecode.BT005_BT006_7_2_1 Nphases=2,r1=0.77257,x1=0.3546,units=km,normamps=131.3
new linecode.BT005_BT006_7_3_1 Nphases=3,r1=0.77257,x1=0.3546,units=km,normamps=131.3
new linecode.BT005_BT007_7_2_1 Nphases=2,r1=0.77257,x1=0.3546,units=km,normamps=131.3
new linecode.BT005_BT007_7_3_1 Nphases=3,r1=0.77257,x1=0.3546,units=km,normamps=131.3
new linecode.BT005_BT008_7_2_1 Nphases=2,r1=0.77257,x1=0.3546,units=km,normamps=131.3
new linecode.BT005_BT008_7_3_1 Nphases=3,r1=0.77257,x1=0.3546,units=km,normamps=131.3
new linecode.BT005_BT011_7_2_1 Nphases=2,r1=0.77257,x1=0.3546,units=km,normamps=131.3
new linecode.BT005_BT103_7_2_1 Nphases=2,r1=0.77257,x1=0.3546,units=km,normamps=131.3
new linecode.BT005_BT103_7_3_1 Nphases=3,r1=0.77257,x1=0.3546,units=km,normamps=131.3
new linecode.BT005_BT106_7_3_1 Nphases=3,r1=0.77257,x1=0.3546,units=km,normamps=131.3
new linecode.BT005_BT107_7_2_1 Nphases=2,r1=0.77257,x1=0.3546,units=km,normamps=131.3
new linecode.BT005_BT107_7_3_1 Nphases=3,r1=0.77257,x1=0.3546,units=km,normamps=131.3
new linecode.BT005_BT108_7_2_1 Nphases=2,r1=0.77257,x1=0.3546,units=km,normamps=131.3
new linecode.BT005_BT108_7_3_1 Nphases=3,r1=0.77257,x1=0.3546,units=km,normamps=131.3
new linecode.BT005_BT111_7_2_1 Nphases=2,r1=0.77257,x1=0.3546,units=km,normamps=131.3
new linecode.BT005_BT111_7_3_1 Nphases=3,r1=0.77257,x1=0.3546,units=km,normamps=131.3
new linecode.BT005_BT305_7_2_1 Nphases=2,r1=0.77257,x1=0.3546,units=km,normamps=131.3
new linecode.BT005_BT305_7_3_1 Nphases=3,r1=0.77257,x1=0.3546,units=km,normamps=131.3
new linecode.BT005_BT507_7_3_1 Nphases=3,r1=0.77257,x1=0.3546,units=km,normamps=131.3
new linecode.BT006_BT002_7_3_1 Nphases=3,r1=1.0019,x1=0.3634,units=km,normamps=176.8
new linecode.BT006_BT005_7_2_1 Nphases=2,r1=1.0019,x1=0.3634,units=km,normamps=176.8
new linecode.BT006_BT005_7_3_1 Nphases=3,r1=1.0019,x1=0.3634,units=km,normamps=176.8
new linecode.BT006_BT006_7_1_1 Nphases=1,r1=1.0019,x1=0.3634,units=km,normamps=176.8
new linecode.BT006_BT006_7_2_1 Nphases=2,r1=1.0019,x1=0.3634,units=km,normamps=176.8
new linecode.BT006_BT006_7_3_1 Nphases=3,r1=1.0019,x1=0.3634,units=km,normamps=176.8
new linecode.BT006_BT007_7_3_1 Nphases=3,r1=1.0019,x1=0.3634,units=km,normamps=176.8
new linecode.BT006_BT103_7_3_1 Nphases=3,r1=1.0019,x1=0.3634,units=km,normamps=176.8
new linecode.BT006_BT107_7_3_1 Nphases=3,r1=1.0019,x1=0.3634,units=km,normamps=176.8
new linecode.BT006_BT206_7_1_1 Nphases=1,r1=1.0019,x1=0.3634,units=km,normamps=176.8
new linecode.BT007_BT002_7_2_1 Nphases=2,r1=0.635,x1=0.34589,units=km,normamps=252.2
new linecode.BT007_BT002_7_3_1 Nphases=3,r1=0.635,x1=0.34589,units=km,normamps=252.2
new linecode.BT007_BT003_7_2_1 Nphases=2,r1=0.635,x1=0.34589,units=km,normamps=252.2
new linecode.BT007_BT005_7_2_1 Nphases=2,r1=0.635,x1=0.34589,units=km,normamps=252.2
new linecode.BT007_BT005_7_3_1 Nphases=3,r1=0.635,x1=0.34589,units=km,normamps=252.2
new linecode.BT007_BT006_7_2_1 Nphases=2,r1=0.635,x1=0.34589,units=km,normamps=252.2
new linecode.BT007_BT006_7_3_1 Nphases=3,r1=0.635,x1=0.34589,units=km,normamps=252.2
new linecode.BT007_BT007_7_2_1 Nphases=2,r1=0.635,x1=0.34589,units=km,normamps=252.2
new linecode.BT007_BT007_7_3_1 Nphases=3,r1=0.635,x1=0.34589,units=km,normamps=252.2
new linecode.BT007_BT008_7_2_1 Nphases=2,r1=0.635,x1=0.34589,units=km,normamps=252.2
new linecode.BT007_BT008_7_3_1 Nphases=3,r1=0.635,x1=0.34589,units=km,normamps=252.2
new linecode.BT007_BT011_7_3_1 Nphases=3,r1=0.635,x1=0.34589,units=km,normamps=252.2
new linecode.BT007_BT103_7_3_1 Nphases=3,r1=0.635,x1=0.34589,units=km,normamps=252.2
new linecode.BT007_BT106_7_3_1 Nphases=3,r1=0.635,x1=0.34589,units=km,normamps=252.2
new linecode.BT007_BT107_7_2_1 Nphases=2,r1=0.635,x1=0.34589,units=km,normamps=252.2
new linecode.BT007_BT107_7_3_1 Nphases=3,r1=0.635,x1=0.34589,units=km,normamps=252.2
new linecode.BT007_BT108_7_2_1 Nphases=2,r1=0.635,x1=0.34589,units=km,normamps=252.2
new linecode.BT007_BT108_7_3_1 Nphases=3,r1=0.635,x1=0.34589,units=km,normamps=252.2
new linecode.BT007_BT111_7_3_1 Nphases=3,r1=0.635,x1=0.34589,units=km,normamps=252.2
new linecode.BT007_BT206_7_2_1 Nphases=2,r1=0.635,x1=0.34589,units=km,normamps=252.2
new linecode.BT007_BT206_7_3_1 Nphases=3,r1=0.635,x1=0.34589,units=km,normamps=252.2
new linecode.BT007_BT305_7_2_1 Nphases=2,r1=0.635,x1=0.34589,units=km,normamps=252.2
new linecode.BT007_BT307_7_3_1 Nphases=3,r1=0.635,x1=0.34589,units=km,normamps=252.2
new linecode.BT007_BT507_7_3_1 Nphases=3,r1=0.635,x1=0.34589,units=km,normamps=252.2
new linecode.BT007_BT808_7_2_1 Nphases=2,r1=0.635,x1=0.34589,units=km,normamps=252.2
new linecode.BT008_BT005_7_3_1 Nphases=3,r1=0.4047,x1=0.32431,units=km,normamps=327.6
new linecode.BT008_BT006_7_3_1 Nphases=3,r1=0.4047,x1=0.32431,units=km,normamps=327.6
new linecode.BT008_BT007_7_2_1 Nphases=2,r1=0.4047,x1=0.32431,units=km,normamps=327.6
new linecode.BT008_BT007_7_3_1 Nphases=3,r1=0.4047,x1=0.32431,units=km,normamps=327.6
new linecode.BT008_BT008_7_2_1 Nphases=2,r1=0.4047,x1=0.32431,units=km,normamps=327.6
new linecode.BT008_BT008_7_3_1 Nphases=3,r1=0.4047,x1=0.32431,units=km,normamps=327.6
new linecode.BT008_BT108_7_3_1 Nphases=3,r1=0.4047,x1=0.32431,units=km,normamps=327.6
new linecode.BT008_BT308_7_2_1 Nphases=2,r1=0.4047,x1=0.32431,units=km,normamps=327.6
new linecode.BT009_BT005_7_2_1 Nphases=2,r1=0.3208,x1=0.31543,units=km,normamps=380.9
new linecode.BT009_BT007_7_3_1 Nphases=3,r1=0.3208,x1=0.31543,units=km,normamps=380.9
new linecode.BT009_BT008_7_3_1 Nphases=3,r1=0.3208,x1=0.31543,units=km,normamps=380.9
new linecode.BT009_BT009_7_2_1 Nphases=2,r1=0.3208,x1=0.31543,units=km,normamps=380.9
new linecode.BT009_BT009_7_3_1 Nphases=3,r1=0.3208,x1=0.31543,units=km,normamps=380.9
new linecode.BT010_BT007_7_3_1 Nphases=3,r1=0.2551,x1=0.29889,units=km,normamps=439.4
new linecode.BT011_BT005_7_3_1 Nphases=3,r1=0.2027,x1=0.29792,units=km,normamps=512.2
new linecode.BT011_BT007_7_3_1 Nphases=3,r1=0.2027,x1=0.29792,units=km,normamps=512.2
new linecode.BT011_BT008_7_3_1 Nphases=3,r1=0.2027,x1=0.29792,units=km,normamps=512.2
new linecode.BT011_BT011_7_3_1 Nphases=3,r1=0.2027,x1=0.29792,units=km,normamps=512.2
new linecode.BT012_BT012_7_3_1 Nphases=3,r1=0.1433,x1=0.2763,units=km,normamps=644.8
new linecode.BT101_BT101_7_1_1 Nphases=1,r1=6.40252,x1=0.40416,units=km,normamps=62.4
new linecode.BT101_BT101_7_2_1 Nphases=2,r1=6.40252,x1=0.40416,units=km,normamps=62.4
new linecode.BT101_BT101_7_3_1 Nphases=3,r1=6.40252,x1=0.40416,units=km,normamps=62.4
new linecode.BT101_BT107_7_2_1 Nphases=2,r1=6.40252,x1=0.40416,units=km,normamps=62.4
new linecode.BT101_BT107_7_3_1 Nphases=3,r1=6.40252,x1=0.40416,units=km,normamps=62.4
new linecode.BT101_BT108_7_3_1 Nphases=3,r1=6.40252,x1=0.40416,units=km,normamps=62.4
new linecode.BT101_BT507_7_3_1 Nphases=3,r1=6.40252,x1=0.40416,units=km,normamps=62.4
new linecode.BT101_BT519_7_2_1 Nphases=2,r1=6.40252,x1=0.40416,units=km,normamps=62.4
new linecode.BT102_BT102_7_2_1 Nphases=2,r1=4.04087,x1=0.39834,units=km,normamps=83.2
new linecode.BT102_BT102_7_3_1 Nphases=3,r1=4.04087,x1=0.39834,units=km,normamps=83.2
new linecode.BT102_BT107_7_3_1 Nphases=3,r1=4.04087,x1=0.39834,units=km,normamps=83.2
new linecode.BT102_BT206_7_2_1 Nphases=2,r1=4.04087,x1=0.39834,units=km,normamps=83.2
new linecode.BT103_BT005_7_2_1 Nphases=2,r1=2.5676,x1=0.35814,units=km,normamps=105.3
new linecode.BT103_BT005_7_3_1 Nphases=3,r1=2.5676,x1=0.35814,units=km,normamps=105.3
new linecode.BT103_BT007_7_3_1 Nphases=3,r1=2.5676,x1=0.35814,units=km,normamps=105.3
new linecode.BT103_BT103_7_1_1 Nphases=1,r1=2.5676,x1=0.35814,units=km,normamps=105.3
new linecode.BT103_BT103_7_2_1 Nphases=2,r1=2.5676,x1=0.35814,units=km,normamps=105.3
new linecode.BT103_BT103_7_3_1 Nphases=3,r1=2.5676,x1=0.35814,units=km,normamps=105.3
new linecode.BT103_BT106_7_1_1 Nphases=1,r1=2.5676,x1=0.35814,units=km,normamps=105.3
new linecode.BT103_BT106_7_2_1 Nphases=2,r1=2.5676,x1=0.35814,units=km,normamps=105.3
new linecode.BT103_BT107_7_1_1 Nphases=1,r1=2.5676,x1=0.35814,units=km,normamps=105.3
new linecode.BT103_BT107_7_2_1 Nphases=2,r1=2.5676,x1=0.35814,units=km,normamps=105.3
new linecode.BT103_BT107_7_3_1 Nphases=3,r1=2.5676,x1=0.35814,units=km,normamps=105.3
new linecode.BT103_BT108_7_2_1 Nphases=2,r1=2.5676,x1=0.35814,units=km,normamps=105.3
new linecode.BT103_BT108_7_3_1 Nphases=3,r1=2.5676,x1=0.35814,units=km,normamps=105.3
new linecode.BT103_BT111_7_2_1 Nphases=2,r1=2.5676,x1=0.35814,units=km,normamps=105.3
new linecode.BT103_BT204_7_3_1 Nphases=3,r1=2.5676,x1=0.35814,units=km,normamps=105.3
new linecode.BT103_BT305_7_3_1 Nphases=3,r1=2.5676,x1=0.35814,units=km,normamps=105.3
new linecode.BT103_BT307_7_3_1 Nphases=3,r1=2.5676,x1=0.35814,units=km,normamps=105.3
new linecode.BT103_BT504_7_3_1 Nphases=3,r1=2.5676,x1=0.35814,units=km,normamps=105.3
new linecode.BT104_BT103_7_3_1 Nphases=3,r1=2.0084,x1=0.37908,units=km,normamps=106.6
new linecode.BT104_BT104_7_1_1 Nphases=1,r1=2.0084,x1=0.37908,units=km,normamps=106.6
new linecode.BT104_BT104_7_2_1 Nphases=2,r1=2.0084,x1=0.37908,units=km,normamps=106.6
new linecode.BT104_BT104_7_3_1 Nphases=3,r1=2.0084,x1=0.37908,units=km,normamps=106.6
new linecode.BT104_BT107_7_1_1 Nphases=1,r1=2.0084,x1=0.37908,units=km,normamps=106.6
new linecode.BT104_BT107_7_2_1 Nphases=2,r1=2.0084,x1=0.37908,units=km,normamps=106.6
new linecode.BT104_BT107_7_3_1 Nphases=3,r1=2.0084,x1=0.37908,units=km,normamps=106.6
new linecode.BT104_BT108_7_2_1 Nphases=2,r1=2.0084,x1=0.37908,units=km,normamps=106.6
new linecode.BT104_BT503_7_2_1 Nphases=2,r1=2.0084,x1=0.37908,units=km,normamps=106.6
new linecode.BT105_BT101_7_2_1 Nphases=2,r1=1.2637,x1=0.3377,units=km,normamps=131.3